aqu_catunit.ele: written by SWAT+ editor v2.0.4 on 2021-11-15 12:53
      id  name                   obj_typ  obj_typ_no      bsn_frac      sub_frac      reg_frac  
       1  aqu010                     aqu           1       0.00219       0.00000       0.00000  
       2  aqu020                     aqu           2       0.00422       0.00000       0.00000  
       3  aqu030                     aqu           3       0.00351       0.00000       0.00000  
       4  aqu040                     aqu           4       0.00434       0.00000       0.00000  
       5  aqu050                     aqu           5       0.00469       0.00000       0.00000  
       6  aqu060                     aqu           6       0.00132       0.00000       0.00000  
       7  aqu070                     aqu           7       0.00454       0.00000       0.00000  
       8  aqu080                     aqu           8       0.00561       0.00000       0.00000  
       9  aqu090                     aqu           9       0.00224       0.00000       0.00000  
      10  aqu100                     aqu          10       0.00419       0.00000       0.00000  
      11  aqu110                     aqu          11       0.05520       0.00000       0.00000  
      12  aqu120                     aqu          12       0.02807       0.00000       0.00000  
      13  aqu130                     aqu          13       0.01207       0.00000       0.00000  
      14  aqu140                     aqu          14       0.02079       0.00000       0.00000  
      15  aqu150                     aqu          15       0.01699       0.00000       0.00000  
      16  aqu160                     aqu          16       0.00590       0.00000       0.00000  
      17  aqu170                     aqu          17       0.32795       0.00000       0.00000  
      18  aqu180                     aqu          18       0.06838       0.00000       0.00000  
      19  aqu190                     aqu          19       0.00497       0.00000       0.00000  
      20  aqu200                     aqu          20       0.00259       0.00000       0.00000  
      21  aqu210                     aqu          21       0.00106       0.00000       0.00000  
      22  aqu220                     aqu          22       0.05820       0.00000       0.00000  
      23  aqu230                     aqu          23       0.00258       0.00000       0.00000  
      24  aqu240                     aqu          24       0.00477       0.00000       0.00000  
      25  aqu250                     aqu          25       0.00390       0.00000       0.00000  
      26  aqu260                     aqu          26       0.00274       0.00000       0.00000  
      27  aqu270                     aqu          27       0.02120       0.00000       0.00000  
      28  aqu280                     aqu          28       0.19684       0.00000       0.00000  
      29  aqu290                     aqu          29       0.06407       0.00000       0.00000  
      30  aqu300                     aqu          30       0.00688       0.00000       0.00000  
      31  aqu310                     aqu          31       0.04848       0.00000       0.00000  
      32  aqu320                     aqu          32       0.00617       0.00000       0.00000  
      33  aqu330                     aqu          33       0.00137       0.00000       0.00000  
      34  aqu340                     aqu          34       0.00197       0.00000       0.00000  
      35  aqu_deep001                aqu          35       0.00219       0.00000       0.00000  
      36  aqu_deep002                aqu          36       0.00422       0.00000       0.00000  
      37  aqu_deep003                aqu          37       0.00351       0.00000       0.00000  
      38  aqu_deep004                aqu          38       0.00434       0.00000       0.00000  
      39  aqu_deep005                aqu          39       0.00469       0.00000       0.00000  
      40  aqu_deep006                aqu          40       0.00132       0.00000       0.00000  
      41  aqu_deep007                aqu          41       0.00454       0.00000       0.00000  
      42  aqu_deep008                aqu          42       0.00561       0.00000       0.00000  
      43  aqu_deep009                aqu          43       0.00224       0.00000       0.00000  
      44  aqu_deep010                aqu          44       0.00419       0.00000       0.00000  
      45  aqu_deep011                aqu          45       0.05520       0.00000       0.00000  
      46  aqu_deep012                aqu          46       0.02807       0.00000       0.00000  
      47  aqu_deep013                aqu          47       0.01207       0.00000       0.00000  
      48  aqu_deep014                aqu          48       0.02079       0.00000       0.00000  
      49  aqu_deep015                aqu          49       0.01699       0.00000       0.00000  
      50  aqu_deep016                aqu          50       0.00590       0.00000       0.00000  
      51  aqu_deep017                aqu          51       0.32795       0.00000       0.00000  
      52  aqu_deep018                aqu          52       0.06838       0.00000       0.00000  
      53  aqu_deep019                aqu          53       0.00497       0.00000       0.00000  
      54  aqu_deep020                aqu          54       0.00259       0.00000       0.00000  
      55  aqu_deep021                aqu          55       0.00106       0.00000       0.00000  
      56  aqu_deep022                aqu          56       0.05820       0.00000       0.00000  
      57  aqu_deep023                aqu          57       0.00258       0.00000       0.00000  
      58  aqu_deep024                aqu          58       0.00477       0.00000       0.00000  
      59  aqu_deep025                aqu          59       0.00390       0.00000       0.00000  
      60  aqu_deep026                aqu          60       0.00274       0.00000       0.00000  
      61  aqu_deep027                aqu          61       0.02120       0.00000       0.00000  
      62  aqu_deep028                aqu          62       0.19684       0.00000       0.00000  
      63  aqu_deep029                aqu          63       0.06407       0.00000       0.00000  
      64  aqu_deep030                aqu          64       0.00688       0.00000       0.00000  
      65  aqu_deep031                aqu          65       0.04848       0.00000       0.00000  
      66  aqu_deep032                aqu          66       0.00617       0.00000       0.00000  
      67  aqu_deep033                aqu          67       0.00137       0.00000       0.00000  
      68  aqu_deep034                aqu          68       0.00197       0.00000       0.00000  
