aquifer.con: written by SWAT+ editor v2.0.4 on 2021-11-15 12:52
      id  name                gis_id          area           lat           lon          elev       aqu               wst       cst      ovfl      rule   out_tot       obj_typ    obj_id       hyd_typ          frac  
       1  aqu010                  10    3283.80043      40.88283       0.71255     174.00000         1       s40873n716e         0         0         0         1           aqu        35           rhg       1.00000  
       2  aqu020                  20    6320.99968      40.95785       0.73327     207.00000         2       s40909n764e         0         0         0         1           aqu        36           rhg       1.00000  
       3  aqu030                  30    5254.50223      40.96980       0.77796     271.00000         3       s40909n764e         0         0         0         1           aqu        37           rhg       1.00000  
       4  aqu040                  40    6508.58519      41.03207       0.85402     412.00000         4       s41043n740e         0         0         0         1           aqu        38           rhg       1.00000  
       5  aqu050                  50    7029.71463      41.11991       0.95046     226.00000         5       s41135n960e         0         0         0         1           aqu        39           rhg       1.00000  
       6  aqu060                  60    1984.92879      41.11519       1.00599     118.00000         6      s41137n1024e         0         0         0         1           aqu        40           rhg       1.00000  
       7  aqu070                  70    6797.34043      41.17832       0.98307     370.00000         7       s41154n998e         0         0         0         1           aqu        41           rhg       1.00000  
       8  aqu080                  80    8414.47514      41.18510       1.04376     232.00000         8      s41137n1024e         0         0         0         1           aqu        42           rhg       1.00000  
       9  aqu090                  90    3360.73157      41.13949       1.09671     106.00000         9      s41081n1066e         0         0         0         1           aqu        43           rhg       1.00000  
      10  aqu100                 100    6279.37255      41.16238       1.14341     106.00000        10      s41170n1170e         0         0         0         1           aqu        44           rhg       1.00000  
      11  aqu110                 110   82731.01001      41.33733       1.18105     251.00000        11      s41365n1180e         0         0         0         1           aqu        45           rhg       1.00000  
      12  aqu120                 120   42060.78335      41.36227       1.38182     409.00000        12      s41309n1365e         0         0         0         1           aqu        46           rhg       1.00000  
      13  aqu130                 130   18096.20639      41.27755       1.51113     164.00000        13      s41273n1469e         0         0         0         1           aqu        47           rhg       1.00000  
      14  aqu140                 140   31150.26157      41.35950       1.58930     431.00000        14      s41375n1630e         0         0         0         1           aqu        48           rhg       1.00000  
      15  aqu150                 150   25468.94959      41.32179       1.80767     177.00000        15      s41278n1805e         0         0         0         1           aqu        49           rhg       1.00000  
      16  aqu160                 160    8840.23104      41.30657       2.00483      19.00000        16      s41298n2039e         0         0         0         1           aqu        50           rhg       1.00000  
      17  aqu170                 170  491486.17878      41.82431       1.80935     398.00000        17      s41831n1847e         0         0         0         1           aqu        51           rhg       1.00000  
      18  aqu180                 180  102484.39746      41.63605       2.21247     218.00000        18      s41613n2169e         0         0         0         1           aqu        52           rhg       1.00000  
      19  aqu190                 190    7454.94360      41.58254       2.41245     277.00000        19      s41620n2445e         0         0         0         1           aqu        53           rhg       1.00000  
      20  aqu200                 200    3879.75330      41.63316       2.58257     185.00000        20      s41680n2489e         0         0         0         1           aqu        54           rhg       1.00000  
      21  aqu210                 210    1587.62688      41.65093       2.64806     142.00000        21      s41739n2694e         0         0         0         1           aqu        55           rhg       1.00000  
      22  aqu220                 220   87225.15858      41.77144       2.59522     285.00000        22      s41739n2694e         0         0         0         1           aqu        56           rhg       1.00000  
      23  aqu230                 230    3860.78398      41.74710       2.89514      77.00000        23      s41723n2843e         0         0         0         1           aqu        57           rhg       1.00000  
      24  aqu240                 240    7148.27289      41.81400       2.97438      41.00000        24      s41818n2979e         0         0         0         1           aqu        58           rhg       1.00000  
      25  aqu250                 250    5845.71277      41.86605       3.04507     279.00000        25      s41809n3032e         0         0         0         1           aqu        59           rhg       1.00000  
      26  aqu260                 260    4107.91209      41.88993       3.13901      59.00000        26      s41965n3038e         0         0         0         1           aqu        60           rhg       1.00000  
      27  aqu270                 270   31775.19535      41.96259       3.05273      51.00000        27      s41965n3038e         0         0         0         1           aqu        61           rhg       1.00000  
      28  aqu280                 280  294996.14393      42.07273       2.46644     990.00000        28      s42146n2455e         0         0         0         1           aqu        62           rhg       1.00000  
      29  aqu290                 290   96015.33169      42.20529       2.60656     297.00000        29      s42188n2471e         0         0         0         1           aqu        63           rhg       1.00000  
      30  aqu300                 300   10309.82658      42.21809       3.02147       9.00000        30      s42183n3059e         0         0         0         1           aqu        64           rhg       1.00000  
      31  aqu310                 310   72657.77303      42.34201       2.87876      79.00000        31      s42341n2833e         0         0         0         1           aqu        65           rhg       1.00000  
      32  aqu320                 320    9250.70609      42.31897       3.09345      19.00000        32      s42238n3095e         0         0         0         1           aqu        66           rhg       1.00000  
      33  aqu330                 330    2058.69838      42.30829       3.20879      93.00000        33      s42271n3183e         0         0         0         1           aqu        67           rhg       1.00000  
      34  aqu340                 340    2952.36422      42.36451       3.11915      82.00000        34      s42426n3125e         0         0         0         1           aqu        68           rhg       1.00000  
      35  aqu_deep001              1    3283.80043      40.88283       0.71255     174.00000        35       s40873n716e         0         0         0         0  
      36  aqu_deep002              2    6320.99968      40.95785       0.73327     207.00000        36       s40909n764e         0         0         0         0  
      37  aqu_deep003              3    5254.50223      40.96980       0.77796     271.00000        37       s40909n764e         0         0         0         0  
      38  aqu_deep004              4    6508.58519      41.03207       0.85402     412.00000        38       s41043n740e         0         0         0         0  
      39  aqu_deep005              5    7029.71463      41.11991       0.95046     226.00000        39       s41135n960e         0         0         0         0  
      40  aqu_deep006              6    1984.92879      41.11519       1.00599     118.00000        40      s41137n1024e         0         0         0         0  
      41  aqu_deep007              7    6797.34043      41.17832       0.98307     370.00000        41       s41154n998e         0         0         0         0  
      42  aqu_deep008              8    8414.47514      41.18510       1.04376     232.00000        42      s41137n1024e         0         0         0         0  
      43  aqu_deep009              9    3360.73157      41.13949       1.09671     106.00000        43      s41081n1066e         0         0         0         0  
      44  aqu_deep010             10    6279.37255      41.16238       1.14341     106.00000        44      s41170n1170e         0         0         0         0  
      45  aqu_deep011             11   82731.01001      41.33733       1.18105     251.00000        45      s41365n1180e         0         0         0         0  
      46  aqu_deep012             12   42060.78335      41.36227       1.38182     409.00000        46      s41309n1365e         0         0         0         0  
      47  aqu_deep013             13   18096.20639      41.27755       1.51113     164.00000        47      s41273n1469e         0         0         0         0  
      48  aqu_deep014             14   31150.26157      41.35950       1.58930     431.00000        48      s41375n1630e         0         0         0         0  
      49  aqu_deep015             15   25468.94959      41.32179       1.80767     177.00000        49      s41278n1805e         0         0         0         0  
      50  aqu_deep016             16    8840.23104      41.30657       2.00483      19.00000        50      s41298n2039e         0         0         0         0  
      51  aqu_deep017             17  491486.17878      41.82431       1.80935     398.00000        51      s41831n1847e         0         0         0         0  
      52  aqu_deep018             18  102484.39746      41.63605       2.21247     218.00000        52      s41613n2169e         0         0         0         0  
      53  aqu_deep019             19    7454.94360      41.58254       2.41245     277.00000        53      s41620n2445e         0         0         0         0  
      54  aqu_deep020             20    3879.75330      41.63316       2.58257     185.00000        54      s41680n2489e         0         0         0         0  
      55  aqu_deep021             21    1587.62688      41.65093       2.64806     142.00000        55      s41739n2694e         0         0         0         0  
      56  aqu_deep022             22   87225.15858      41.77144       2.59522     285.00000        56      s41739n2694e         0         0         0         0  
      57  aqu_deep023             23    3860.78398      41.74710       2.89514      77.00000        57      s41723n2843e         0         0         0         0  
      58  aqu_deep024             24    7148.27289      41.81400       2.97438      41.00000        58      s41818n2979e         0         0         0         0  
      59  aqu_deep025             25    5845.71277      41.86605       3.04507     279.00000        59      s41809n3032e         0         0         0         0  
      60  aqu_deep026             26    4107.91209      41.88993       3.13901      59.00000        60      s41965n3038e         0         0         0         0  
      61  aqu_deep027             27   31775.19535      41.96259       3.05273      51.00000        61      s41965n3038e         0         0         0         0  
      62  aqu_deep028             28  294996.14393      42.07273       2.46644     990.00000        62      s42146n2455e         0         0         0         0  
      63  aqu_deep029             29   96015.33169      42.20529       2.60656     297.00000        63      s42188n2471e         0         0         0         0  
      64  aqu_deep030             30   10309.82658      42.21809       3.02147       9.00000        64      s42183n3059e         0         0         0         0  
      65  aqu_deep031             31   72657.77303      42.34201       2.87876      79.00000        65      s42341n2833e         0         0         0         0  
      66  aqu_deep032             32    9250.70609      42.31897       3.09345      19.00000        66      s42238n3095e         0         0         0         0  
      67  aqu_deep033             33    2058.69838      42.30829       3.20879      93.00000        67      s42271n3183e         0         0         0         0  
      68  aqu_deep034             34    2952.36422      42.36451       3.11915      82.00000        68      s42426n3125e         0         0         0         0  
