aquifer.aqu: written by SWAT+ editor v2.0.4 on 2021-11-15 12:52
      id  name                          init        gw_flo       dep_bot        dep_wt         no3_n         sol_p        carbon      flo_dist        bf_max      alpha_bf         revap       rchg_dp      spec_yld       hl_no3n       flo_min     revap_min  
       1  aqu010                    initaqu1       0.05000      10.00000       3.00000       0.00000       0.00000       0.50000      50.00000       1.00000       0.05000       0.02000       0.05000       0.05000       0.00000       3.00000       5.00000  
       2  aqu020                    initaqu1       0.05000      10.00000       3.00000       0.00000       0.00000       0.50000      50.00000       1.00000       0.05000       0.02000       0.05000       0.05000       0.00000       3.00000       5.00000  
       3  aqu030                    initaqu1       0.05000      10.00000       3.00000       0.00000       0.00000       0.50000      50.00000       1.00000       0.05000       0.02000       0.05000       0.05000       0.00000       3.00000       5.00000  
       4  aqu040                    initaqu1       0.05000      10.00000       3.00000       0.00000       0.00000       0.50000      50.00000       1.00000       0.05000       0.02000       0.05000       0.05000       0.00000       3.00000       5.00000  
       5  aqu050                    initaqu1       0.05000      10.00000       3.00000       0.00000       0.00000       0.50000      50.00000       1.00000       0.05000       0.02000       0.05000       0.05000       0.00000       3.00000       5.00000  
       6  aqu060                    initaqu1       0.05000      10.00000       3.00000       0.00000       0.00000       0.50000      50.00000       1.00000       0.05000       0.02000       0.05000       0.05000       0.00000       3.00000       5.00000  
       7  aqu070                    initaqu1       0.05000      10.00000       3.00000       0.00000       0.00000       0.50000      50.00000       1.00000       0.05000       0.02000       0.05000       0.05000       0.00000       3.00000       5.00000  
       8  aqu080                    initaqu1       0.05000      10.00000       3.00000       0.00000       0.00000       0.50000      50.00000       1.00000       0.05000       0.02000       0.05000       0.05000       0.00000       3.00000       5.00000  
       9  aqu090                    initaqu1       0.05000      10.00000       3.00000       0.00000       0.00000       0.50000      50.00000       1.00000       0.05000       0.02000       0.05000       0.05000       0.00000       3.00000       5.00000  
      10  aqu100                    initaqu1       0.05000      10.00000       3.00000       0.00000       0.00000       0.50000      50.00000       1.00000       0.05000       0.02000       0.05000       0.05000       0.00000       3.00000       5.00000  
      11  aqu110                    initaqu1       0.05000      10.00000       3.00000       0.00000       0.00000       0.50000      50.00000       1.00000       0.05000       0.02000       0.05000       0.05000       0.00000       3.00000       5.00000  
      12  aqu120                    initaqu1       0.05000      10.00000       3.00000       0.00000       0.00000       0.50000      50.00000       1.00000       0.05000       0.02000       0.05000       0.05000       0.00000       3.00000       5.00000  
      13  aqu130                    initaqu1       0.05000      10.00000       3.00000       0.00000       0.00000       0.50000      50.00000       1.00000       0.05000       0.02000       0.05000       0.05000       0.00000       3.00000       5.00000  
      14  aqu140                    initaqu1       0.05000      10.00000       3.00000       0.00000       0.00000       0.50000      50.00000       1.00000       0.05000       0.02000       0.05000       0.05000       0.00000       3.00000       5.00000  
      15  aqu150                    initaqu1       0.05000      10.00000       3.00000       0.00000       0.00000       0.50000      50.00000       1.00000       0.05000       0.02000       0.05000       0.05000       0.00000       3.00000       5.00000  
      16  aqu160                    initaqu1       0.05000      10.00000       3.00000       0.00000       0.00000       0.50000      50.00000       1.00000       0.05000       0.02000       0.05000       0.05000       0.00000       3.00000       5.00000  
      17  aqu170                    initaqu1       0.05000      10.00000       3.00000       0.00000       0.00000       0.50000      50.00000       1.00000       0.05000       0.02000       0.05000       0.05000       0.00000       3.00000       5.00000  
      18  aqu180                    initaqu1       0.05000      10.00000       3.00000       0.00000       0.00000       0.50000      50.00000       1.00000       0.05000       0.02000       0.05000       0.05000       0.00000       3.00000       5.00000  
      19  aqu190                    initaqu1       0.05000      10.00000       3.00000       0.00000       0.00000       0.50000      50.00000       1.00000       0.05000       0.02000       0.05000       0.05000       0.00000       3.00000       5.00000  
      20  aqu200                    initaqu1       0.05000      10.00000       3.00000       0.00000       0.00000       0.50000      50.00000       1.00000       0.05000       0.02000       0.05000       0.05000       0.00000       3.00000       5.00000  
      21  aqu210                    initaqu1       0.05000      10.00000       3.00000       0.00000       0.00000       0.50000      50.00000       1.00000       0.05000       0.02000       0.05000       0.05000       0.00000       3.00000       5.00000  
      22  aqu220                    initaqu1       0.05000      10.00000       3.00000       0.00000       0.00000       0.50000      50.00000       1.00000       0.05000       0.02000       0.05000       0.05000       0.00000       3.00000       5.00000  
      23  aqu230                    initaqu1       0.05000      10.00000       3.00000       0.00000       0.00000       0.50000      50.00000       1.00000       0.05000       0.02000       0.05000       0.05000       0.00000       3.00000       5.00000  
      24  aqu240                    initaqu1       0.05000      10.00000       3.00000       0.00000       0.00000       0.50000      50.00000       1.00000       0.05000       0.02000       0.05000       0.05000       0.00000       3.00000       5.00000  
      25  aqu250                    initaqu1       0.05000      10.00000       3.00000       0.00000       0.00000       0.50000      50.00000       1.00000       0.05000       0.02000       0.05000       0.05000       0.00000       3.00000       5.00000  
      26  aqu260                    initaqu1       0.05000      10.00000       3.00000       0.00000       0.00000       0.50000      50.00000       1.00000       0.05000       0.02000       0.05000       0.05000       0.00000       3.00000       5.00000  
      27  aqu270                    initaqu1       0.05000      10.00000       3.00000       0.00000       0.00000       0.50000      50.00000       1.00000       0.05000       0.02000       0.05000       0.05000       0.00000       3.00000       5.00000  
      28  aqu280                    initaqu1       0.05000      10.00000       3.00000       0.00000       0.00000       0.50000      50.00000       1.00000       0.05000       0.02000       0.05000       0.05000       0.00000       3.00000       5.00000  
      29  aqu290                    initaqu1       0.05000      10.00000       3.00000       0.00000       0.00000       0.50000      50.00000       1.00000       0.05000       0.02000       0.05000       0.05000       0.00000       3.00000       5.00000  
      30  aqu300                    initaqu1       0.05000      10.00000       3.00000       0.00000       0.00000       0.50000      50.00000       1.00000       0.05000       0.02000       0.05000       0.05000       0.00000       3.00000       5.00000  
      31  aqu310                    initaqu1       0.05000      10.00000       3.00000       0.00000       0.00000       0.50000      50.00000       1.00000       0.05000       0.02000       0.05000       0.05000       0.00000       3.00000       5.00000  
      32  aqu320                    initaqu1       0.05000      10.00000       3.00000       0.00000       0.00000       0.50000      50.00000       1.00000       0.05000       0.02000       0.05000       0.05000       0.00000       3.00000       5.00000  
      33  aqu330                    initaqu1       0.05000      10.00000       3.00000       0.00000       0.00000       0.50000      50.00000       1.00000       0.05000       0.02000       0.05000       0.05000       0.00000       3.00000       5.00000  
      34  aqu340                    initaqu1       0.05000      10.00000       3.00000       0.00000       0.00000       0.50000      50.00000       1.00000       0.05000       0.02000       0.05000       0.05000       0.00000       3.00000       5.00000  
      35  aqu_deep001               initaqu1       0.00000     100.00000      20.00000       0.00000       0.00000       0.50000      50.00000       1.00000       0.01000       0.00000       0.00000       0.03000       0.00000       0.00000       0.00000  
      36  aqu_deep002               initaqu1       0.00000     100.00000      20.00000       0.00000       0.00000       0.50000      50.00000       1.00000       0.01000       0.00000       0.00000       0.03000       0.00000       0.00000       0.00000  
      37  aqu_deep003               initaqu1       0.00000     100.00000      20.00000       0.00000       0.00000       0.50000      50.00000       1.00000       0.01000       0.00000       0.00000       0.03000       0.00000       0.00000       0.00000  
      38  aqu_deep004               initaqu1       0.00000     100.00000      20.00000       0.00000       0.00000       0.50000      50.00000       1.00000       0.01000       0.00000       0.00000       0.03000       0.00000       0.00000       0.00000  
      39  aqu_deep005               initaqu1       0.00000     100.00000      20.00000       0.00000       0.00000       0.50000      50.00000       1.00000       0.01000       0.00000       0.00000       0.03000       0.00000       0.00000       0.00000  
      40  aqu_deep006               initaqu1       0.00000     100.00000      20.00000       0.00000       0.00000       0.50000      50.00000       1.00000       0.01000       0.00000       0.00000       0.03000       0.00000       0.00000       0.00000  
      41  aqu_deep007               initaqu1       0.00000     100.00000      20.00000       0.00000       0.00000       0.50000      50.00000       1.00000       0.01000       0.00000       0.00000       0.03000       0.00000       0.00000       0.00000  
      42  aqu_deep008               initaqu1       0.00000     100.00000      20.00000       0.00000       0.00000       0.50000      50.00000       1.00000       0.01000       0.00000       0.00000       0.03000       0.00000       0.00000       0.00000  
      43  aqu_deep009               initaqu1       0.00000     100.00000      20.00000       0.00000       0.00000       0.50000      50.00000       1.00000       0.01000       0.00000       0.00000       0.03000       0.00000       0.00000       0.00000  
      44  aqu_deep010               initaqu1       0.00000     100.00000      20.00000       0.00000       0.00000       0.50000      50.00000       1.00000       0.01000       0.00000       0.00000       0.03000       0.00000       0.00000       0.00000  
      45  aqu_deep011               initaqu1       0.00000     100.00000      20.00000       0.00000       0.00000       0.50000      50.00000       1.00000       0.01000       0.00000       0.00000       0.03000       0.00000       0.00000       0.00000  
      46  aqu_deep012               initaqu1       0.00000     100.00000      20.00000       0.00000       0.00000       0.50000      50.00000       1.00000       0.01000       0.00000       0.00000       0.03000       0.00000       0.00000       0.00000  
      47  aqu_deep013               initaqu1       0.00000     100.00000      20.00000       0.00000       0.00000       0.50000      50.00000       1.00000       0.01000       0.00000       0.00000       0.03000       0.00000       0.00000       0.00000  
      48  aqu_deep014               initaqu1       0.00000     100.00000      20.00000       0.00000       0.00000       0.50000      50.00000       1.00000       0.01000       0.00000       0.00000       0.03000       0.00000       0.00000       0.00000  
      49  aqu_deep015               initaqu1       0.00000     100.00000      20.00000       0.00000       0.00000       0.50000      50.00000       1.00000       0.01000       0.00000       0.00000       0.03000       0.00000       0.00000       0.00000  
      50  aqu_deep016               initaqu1       0.00000     100.00000      20.00000       0.00000       0.00000       0.50000      50.00000       1.00000       0.01000       0.00000       0.00000       0.03000       0.00000       0.00000       0.00000  
      51  aqu_deep017               initaqu1       0.00000     100.00000      20.00000       0.00000       0.00000       0.50000      50.00000       1.00000       0.01000       0.00000       0.00000       0.03000       0.00000       0.00000       0.00000  
      52  aqu_deep018               initaqu1       0.00000     100.00000      20.00000       0.00000       0.00000       0.50000      50.00000       1.00000       0.01000       0.00000       0.00000       0.03000       0.00000       0.00000       0.00000  
      53  aqu_deep019               initaqu1       0.00000     100.00000      20.00000       0.00000       0.00000       0.50000      50.00000       1.00000       0.01000       0.00000       0.00000       0.03000       0.00000       0.00000       0.00000  
      54  aqu_deep020               initaqu1       0.00000     100.00000      20.00000       0.00000       0.00000       0.50000      50.00000       1.00000       0.01000       0.00000       0.00000       0.03000       0.00000       0.00000       0.00000  
      55  aqu_deep021               initaqu1       0.00000     100.00000      20.00000       0.00000       0.00000       0.50000      50.00000       1.00000       0.01000       0.00000       0.00000       0.03000       0.00000       0.00000       0.00000  
      56  aqu_deep022               initaqu1       0.00000     100.00000      20.00000       0.00000       0.00000       0.50000      50.00000       1.00000       0.01000       0.00000       0.00000       0.03000       0.00000       0.00000       0.00000  
      57  aqu_deep023               initaqu1       0.00000     100.00000      20.00000       0.00000       0.00000       0.50000      50.00000       1.00000       0.01000       0.00000       0.00000       0.03000       0.00000       0.00000       0.00000  
      58  aqu_deep024               initaqu1       0.00000     100.00000      20.00000       0.00000       0.00000       0.50000      50.00000       1.00000       0.01000       0.00000       0.00000       0.03000       0.00000       0.00000       0.00000  
      59  aqu_deep025               initaqu1       0.00000     100.00000      20.00000       0.00000       0.00000       0.50000      50.00000       1.00000       0.01000       0.00000       0.00000       0.03000       0.00000       0.00000       0.00000  
      60  aqu_deep026               initaqu1       0.00000     100.00000      20.00000       0.00000       0.00000       0.50000      50.00000       1.00000       0.01000       0.00000       0.00000       0.03000       0.00000       0.00000       0.00000  
      61  aqu_deep027               initaqu1       0.00000     100.00000      20.00000       0.00000       0.00000       0.50000      50.00000       1.00000       0.01000       0.00000       0.00000       0.03000       0.00000       0.00000       0.00000  
      62  aqu_deep028               initaqu1       0.00000     100.00000      20.00000       0.00000       0.00000       0.50000      50.00000       1.00000       0.01000       0.00000       0.00000       0.03000       0.00000       0.00000       0.00000  
      63  aqu_deep029               initaqu1       0.00000     100.00000      20.00000       0.00000       0.00000       0.50000      50.00000       1.00000       0.01000       0.00000       0.00000       0.03000       0.00000       0.00000       0.00000  
      64  aqu_deep030               initaqu1       0.00000     100.00000      20.00000       0.00000       0.00000       0.50000      50.00000       1.00000       0.01000       0.00000       0.00000       0.03000       0.00000       0.00000       0.00000  
      65  aqu_deep031               initaqu1       0.00000     100.00000      20.00000       0.00000       0.00000       0.50000      50.00000       1.00000       0.01000       0.00000       0.00000       0.03000       0.00000       0.00000       0.00000  
      66  aqu_deep032               initaqu1       0.00000     100.00000      20.00000       0.00000       0.00000       0.50000      50.00000       1.00000       0.01000       0.00000       0.00000       0.03000       0.00000       0.00000       0.00000  
      67  aqu_deep033               initaqu1       0.00000     100.00000      20.00000       0.00000       0.00000       0.50000      50.00000       1.00000       0.01000       0.00000       0.00000       0.03000       0.00000       0.00000       0.00000  
      68  aqu_deep034               initaqu1       0.00000     100.00000      20.00000       0.00000       0.00000       0.50000      50.00000       1.00000       0.01000       0.00000       0.00000       0.03000       0.00000       0.00000       0.00000  
