chandeg.con: written by SWAT+ editor v2.0.4 on 2021-11-15 12:52
      id  name                gis_id          area           lat           lon          elev      lcha               wst       cst      ovfl      rule   out_tot       obj_typ    obj_id       hyd_typ          frac  
       1  cha001                   1   72590.32655      42.25002       3.08799             0         1      s42238n3095e         0         0         0         1           sdc        39           tot       1.00000  
       2  cha002                   2   16885.85825      42.25986       3.00880             0         2      s42304n3009e         0         0         0         1           sdc       786           tot       1.00000  
       3  cha003                   3   16131.30077      42.24090       2.97185             0         3      s42238n2969e         0         0         0         1           sdc         2           tot       1.00000  
       4  cha004                   4   19208.54636      42.30137       2.97975             0         4      s42306n2955e         0         0         0         1           sdc       786           tot       1.00000  
       5  cha005                   5   18771.19810      42.31181       2.92910             0         5      s42316n2918e         0         0         0         1           sdc         4           tot       1.00000  
       6  cha006                   6   18109.37953      42.32518       2.88900             0         6      s42316n2918e         0         0         0         1           sdc         5           tot       1.00000  
       7  cha007                   7   26187.67613      42.25909       2.16219             0         7      s42222n2243e         0         0         0         1           sdc        73           tot       1.00000  
       8  cha008                   8   16449.03692      42.33756       2.84668             0         8      s42341n2833e         0         0         0         1           sdc         6           tot       1.00000  
       9  cha009                   9   18697.42852      42.25818       2.59958             0         9      s42188n2471e         0         0         0         1           sdc        74           tot       1.00000  
      10  cha010                  10   22069.75245      42.27664       2.34726             0        10      s42258n2364e         0         0         0         1           sdc       761           tot       1.00000  
      11  cha011                  11   19457.25525      42.30614       2.36193             0        11      s42258n2364e         0         0         0         1           sdc        10           tot       1.00000  
      12  cha012                  12    8883.43894      42.30809       2.15802             0        12      s42393n2161e         0         0         0         1           sdc       832           tot       1.00000  
      13  cha013                  13   13760.66243      42.31559       2.35655             0        13      s42324n2412e         0         0         0         1           sdc        11           tot       1.00000  
      14  cha014                  14    5981.13265      42.32340       2.78549             0        14      s42341n2833e         0         0         0         1           res         1           tot       1.00000  
      15  cha015                  15    8691.11109      42.31245       2.12933             0        15      s42393n2161e         0         0         0         1           sdc        12           tot       1.00000  
      16  cha016                  16    6222.46459      42.28499       3.10257             0        16      s42238n3095e         0         0         0         1           sdc       795           tot       1.00000  
      17  cha017                  17    2952.36422      42.36698       3.15119             0        17      s42426n3125e         0         0         0         0  
      18  cha018                  18    4595.31829      42.29251       3.09025             0        18      s42238n3095e         0         0         0         1           sdc        16           tot       1.00000  
      19  cha019                  19    3589.41729      42.24515       1.97541             0        19      s42260n1977e         0         0         0         1           sdc       643           tot       1.00000  
      20  cha020                  20    4270.20518      42.39709       2.88005             0        20      s42341n2833e         0         0         0         1           sdc       792           tot       1.00000  
      21  cha021                  21    5422.06458      42.32916       2.38724             0        21      s42324n2412e         0         0         0         1           sdc        11           tot       1.00000  
      22  cha022                  22    2128.25256      42.25063       2.86537             0        22      s42228n2863e         0         0         0         1           sdc       834           tot       1.00000  
      23  cha023                  23    3588.36344      42.25268       1.97660             0        23      s42260n1977e         0         0         0         1           sdc        19           tot       1.00000  
      24  cha024                  24    3312.78134      42.26240       1.83035             0        24      s42259n1860e         0         0         0         1           sdc       641           tot       1.00000  
      25  cha025                  25    1931.70930      42.42069       3.02029             0        25      s42385n3007e         0         0         0         1           sdc       838           tot       1.00000  
      26  cha026                  26    2004.42504      42.26958       1.79853             0        26      s42265n1762e         0         0         0         1           sdc        24           tot       1.00000  
      27  cha027                  27    2306.35342      42.26343       2.43976             0        27      s42324n2412e         0         0         0         1           sdc       777           tot       1.00000  
      28  cha028                  28    3035.09154      42.26266       2.66288             0        28      s42178n2799e         0         0         0         1           sdc        75           tot       1.00000  
      29  cha029                  29    2546.10457      42.27508       1.85653             0        29      s42259n1860e         0         0         0         1           sdc       641           tot       1.00000  
      30  cha030                  30    1339.97184      42.31582       1.99438             0        30      s42280n2023e         0         0         0         1           sdc       758           tot       1.00000  
      31  cha031                  31    1233.00594      42.32171       2.58398             0        31      s42324n2412e         0         0         0         1           sdc       776           tot       1.00000  
      32  cha032                  32    2506.58515      42.35480       2.87241             0        32      s42341n2833e         0         0         0         1           sdc       835           tot       1.00000  
      33  cha033                  33    2660.44743      42.36101       3.12149             0        33      s42426n3125e         0         0         0         1           sdc        17           tot       1.00000  
      34  cha034                  34  294916.05123      42.03029       3.14162             0        34      s42023n3157e         0         0         0         1           sdc       873           tot       1.00000  
      35  cha035                  35  286771.88893      42.06209       2.97149             0        35      s42077n2991e         0         0         0         1           sdc       706           tot       1.00000  
      36  cha036                  36  276033.67182      42.06042       2.91227             0        36      s42077n2991e         0         0         0         1           sdc       709           tot       1.00000  
      37  cha037                  37  260026.19857      42.03420       2.84741             0        37      s41975n2825e         0         0         0         1           sdc       711           tot       1.00000  
      38  cha038                  38  258676.21514      42.01979       2.82728             0        38      s41982n2807e         0         0         0         1           sdc        37           tot       1.00000  
      39  cha039                  39   72657.77303      42.24150       3.11394             0        39      s42238n3095e         0         0         0         0  
      40  cha040                  40   55498.44039      42.06438       1.87128             0        40      s42122n1879e         0         0         0         1           sdc       634           tot       1.00000  
      41  cha041                  41   53297.47209      42.07879       1.87366             0        41      s42122n1879e         0         0         0         1           sdc        40           tot       1.00000  
      42  cha042                  42   52942.32423      42.09519       1.87951             0        42      s42122n1879e         0         0         0         1           sdc        41           tot       1.00000  
      43  cha043                  43   95686.53010      42.17355       3.05142             0        43      s42183n3059e         0         0         0         1           sdc       874           tot       1.00000  
      44  cha044                  44   95335.07072      42.16833       3.00483             0        44      s42154n2955e         0         0         0         1           sdc        43           tot       1.00000  
      45  cha045                  45   87808.46524      42.17252       2.88663             0        45      s42228n2863e         0         0         0         1           sdc       768           tot       1.00000  
      46  cha046                  46   87147.70052      42.17349       2.87432             0        46      s42228n2863e         0         0         0         1           sdc        45           tot       1.00000  
      47  cha047                  47  104812.35483      42.02266       2.24421             0        47      s42074n2209e         0         0         0         1           sdc       746           tot       1.00000  
      48  cha048                  48   80896.25502      42.17636       2.81587             0        48      s42178n2799e         0         0         0         1           sdc       769           tot       1.00000  
      49  cha049                  49   80226.00564      42.18024       2.79081             0        49      s42178n2799e         0         0         0         1           sdc        48           tot       1.00000  
      50  cha050                  50  101524.86592      42.04067       2.24882             0        50      s42074n2209e         0         0         0         1           sdc        47           tot       1.00000  
      51  cha051                  51   79654.81827      42.18642       2.77760             0        51      s42178n2799e         0         0         0         1           sdc        49           tot       1.00000  
      52  cha052                  52   92360.57562      42.05410       2.25349             0        52      s42074n2209e         0         0         0         1           sdc        50           tot       1.00000  
      53  cha053                  53   91914.79655      42.06973       2.24278             0        53      s42074n2209e         0         0         0         1           sdc        52           tot       1.00000  
      54  cha054                  54   59778.65715      42.19927       2.68216             0        54      s42178n2799e         0         0         0         1           sdc       774           tot       1.00000  
      55  cha055                  55   31400.02432      42.21113       2.60472             0        55      s42188n2471e         0         0         0         1           sdc       775           tot       1.00000  
      56  cha056                  56   81433.19222      42.13454       2.20819             0        56      s42151n2199e         0         0         0         1           sdc       861           tot       1.00000  
      57  cha057                  57   74242.23836      42.14434       2.20631             0        57      s42151n2199e         0         0         0         1           sdc        56           tot       1.00000  
      58  cha058                  58   27791.11078      42.22041       2.55233             0        58      s42188n2471e         0         0         0         1           sdc       780           tot       1.00000  
      59  cha059                  59   74080.99912      42.15836       2.20174             0        59      s42151n2199e         0         0         0         1           sdc        57           tot       1.00000  
      60  cha060                  60   73251.61820      42.16945       2.19765             0        60      s42172n2194e         0         0         0         1           sdc        59           tot       1.00000  
      61  cha061                  61   24455.14471      42.21602       2.51762             0        61      s42188n2471e         0         0         0         1           sdc       863           tot       1.00000  
      62  cha062                  62   32317.92874      42.20740       2.20200             0        62      s42172n2194e         0         0         0         1           sdc       751           tot       1.00000  
      63  cha063                  63    5466.32633      42.21515       2.46706             0        63      s42188n2471e         0         0         0         1           sdc       841           tot       1.00000  
      64  cha064                  64   35210.22344      42.20170       2.18273             0        64      s42172n2194e         0         0         0         1           sdc       751           tot       1.00000  
      65  cha065                  65    3592.05192      42.03068       3.07410             0        65      s42026n3071e         0         0         0         1           sdc       892           tot       1.00000  
      66  cha066                  66    3102.53802      42.19698       2.83867             0        66      s42228n2863e         0         0         0         1           sdc       769           tot       1.00000  
      67  cha067                  67    4661.18399      42.21737       2.45253             0        67      s42188n2471e         0         0         0         1           sdc        63           tot       1.00000  
      68  cha068                  68    4636.94541      42.21163       2.66099             0        68      s42178n2799e         0         0         0         1           sdc       862           tot       1.00000  
      69  cha069                  69   29938.85959      42.22408       2.25237             0        69      s42222n2243e         0         0         0         1           sdc       759           tot       1.00000  
      70  cha070                  70   20532.71043      42.21605       2.60952             0        70      s42188n2471e         0         0         0         1           sdc       775           tot       1.00000  
      71  cha071                  71   27998.19255      42.22746       2.26992             0        71      s42222n2243e         0         0         0         1           sdc        69           tot       1.00000  
      72  cha072                  72   20081.66211      42.22716       2.60813             0        72      s42188n2471e         0         0         0         1           sdc        70           tot       1.00000  
      73  cha073                  73   27119.28062      42.23559       2.16734             0        73      s42172n2194e         0         0         0         1           sdc       753           tot       1.00000  
      74  cha074                  74   19859.29950      42.24055       2.60629             0        74      s42188n2471e         0         0         0         1           sdc        72           tot       1.00000  
      75  cha075                  75    3635.25982      42.22765       2.66135             0        75      s42178n2799e         0         0         0         1           sdc        68           tot       1.00000  
      76  cha076                  76    3235.85020      42.24060       2.09557             0        76      s42280n2023e         0         0         0         1           sdc       754           tot       1.00000  
      77  cha077                  77    1803.13945      42.21079       2.81753             0        77      s42178n2799e         0         0         0         1           sdc        66           tot       1.00000  
      78  cha078                  78   12055.00422      42.00971       1.65179             0        78      s41963n1606e         0         0         0         1           sdc       812           tot       1.00000  
      79  cha079                  79   13146.26717      42.18146       2.74993             0        79      s42178n2799e         0         0         0         1           sdc       770           tot       1.00000  
      80  cha080                  80   11991.77314      42.17293       2.73459             0        80      s42178n2799e         0         0         0         1           sdc        79           tot       1.00000  
      81  cha081                  81    8847.60800      42.04729       2.26102             0        81      s42074n2209e         0         0         0         1           sdc        50           tot       1.00000  
      82  cha082                  82   14004.10207      42.20226       2.51025             0        82      s42188n2471e         0         0         0         1           sdc        61           tot       1.00000  
      83  cha083                  83    3868.68786      42.23697       2.96481             0        83      s42238n2969e         0         0         0         1           sdc       864           tot       1.00000  
      84  cha084                  84   13447.14169      42.18425       2.50116             0        84      s42188n2471e         0         0         0         1           sdc        82           tot       1.00000  
      85  cha085                  85    3855.51472      42.23010       2.95250             0        85      s42238n2969e         0         0         0         1           sdc        83           tot       1.00000  
      86  cha086                  86   13198.95973      42.17766       2.49022             0        86      s42188n2471e         0         0         0         1           sdc        84           tot       1.00000  
      87  cha087                  87    8832.32716      42.13075       1.65888             0        87      s42136n1673e         0         0         0         1           res         4           tot       1.00000  
      88  cha088                  88    9975.75574      42.04709       1.66108             0        88      s42136n1673e         0         0         0         1           sdc        78           tot       1.00000  
      89  cha089                  89    4381.38649      42.00465       1.88023             0        89      s42081n1962e         0         0         0         1           sdc       630           tot       1.00000  
      90  cha090                  90    9653.80419      42.07178       2.83899             0        90      s42114n2792e         0         0         0         1           sdc       712           tot       1.00000  
      91  cha091                  91    8650.53782      42.06051       2.28324             0        91      s42074n2209e         0         0         0         1           sdc        81           tot       1.00000  
      92  cha092                  92    3245.33486      42.21425       2.48553             0        92      s42188n2471e         0         0         0         1           sdc       841           tot       1.00000  
      93  cha093                  93    3391.29326      42.12907       1.93556             0        93      s42081n1962e         0         0         0         1           res         3           tot       1.00000  
      94  cha094                  94    3223.73091      42.20740       2.48779             0        94      s42188n2471e         0         0         0         1           sdc        92           tot       1.00000  
      95  cha095                  95   10446.82724      42.07619       2.01718             0        95      s42081n1962e         0         0         0         1           sdc       627           tot       1.00000  
      96  cha096                  96    8572.02590      42.15134       2.45310             0        96      s42146n2455e         0         0         0         1           sdc       840           tot       1.00000  
      97  cha097                  97    4305.50920      42.01427       1.86121             0        97      s42107n1827e         0         0         0         1           sdc        89           tot       1.00000  
      98  cha098                  98    4089.99662      42.06726       2.88111             0        98      s42114n2792e         0         0         0         1           sdc       710           tot       1.00000  
      99  cha099                  99    2619.34723      42.14476       2.44481             0        99      s42146n2455e         0         0         0         1           sdc        96           tot       1.00000  
     100  cha100                 100    4169.03546      42.00743       2.50956             0       100      s41979n2527e         0         0         0         1           res         6           tot       1.00000  
     101  cha101                 101    5769.30856      42.13952       1.59985             0       101      s42100n1583e         0         0         0         1           res         4           tot       1.00000  
     102  cha102                 102    7445.98586      42.09809       1.69029             0       102      s42136n1673e         0         0         0         1           sdc        88           tot       1.00000  
     103  cha103                 103    3476.12828      42.06437       2.95350             0       103      s42077n2991e         0         0         0         1           sdc       708           tot       1.00000  
     104  cha104                 104    2951.83729      42.08750       2.86045             0       104      s42114n2792e         0         0         0         1           sdc        98           tot       1.00000  
     105  cha105                 105    1713.03517      42.18857       2.71386             0       105      s42178n2799e         0         0         0         1           sdc       770           tot       1.00000  
     106  cha106                 106    2669.93209      42.01549       2.35432             0       106      s41976n2398e         0         0         0         1           res         6           tot       1.00000  
     107  cha107                 107    5532.19203      42.13595       2.44884             0       107      s42146n2455e         0         0         0         1           sdc        96           tot       1.00000  
     108  cha108                 108    3152.59595      42.21765       2.90546             0       108      s42228n2863e         0         0         0         1           sdc        85           tot       1.00000  
     109  cha109                 109    3837.07233      42.15794       2.63536             0       109      s42114n2792e         0         0         0         1           sdc       771           tot       1.00000  
     110  cha110                 110    3679.52157      42.13461       1.93415             0       110      s42122n1879e         0         0         0         1           res         3           tot       1.00000  
     111  cha111                 111    1929.07468      42.03772       1.88535             0       111      s42122n1879e         0         0         0         1           sdc       634           tot       1.00000  
     112  cha112                 112    2482.34657      42.14464       2.42109             0       112      s42146n2455e         0         0         0         1           sdc        99           tot       1.00000  
     113  cha113                 113    2291.07257      42.02375       2.37002             0       113      s41976n2398e         0         0         0         1           sdc       106           tot       1.00000  
     114  cha114                 114    2030.77132      42.07988       2.79245             0       114      s42114n2792e         0         0         0         1           sdc        90           tot       1.00000  
     115  cha115                 115    2594.58173      42.01083       2.33946             0       115      s41984n2301e         0         0         0         1           res         6           tot       1.00000  
     116  cha116                 116    3185.26534      42.13659       1.97145             0       116      s42081n1962e         0         0         0         1           sdc        93           tot       1.00000  
     117  cha117                 117    2282.64176      42.22848       1.74478             0       117      s42224n1725e         0         0         0         1           sdc       640           tot       1.00000  
     118  cha118                 118    1750.44689      42.05442       1.85567             0       118      s42107n1827e         0         0         0         1           sdc       634           tot       1.00000  
     119  cha119                 119    1269.89073      42.21540       2.99472             0       119      s42238n2969e         0         0         0         1           sdc       765           tot       1.00000  
     120  cha120                 120    2112.97172      42.14581       2.39385             0       120      s42139n2358e         0         0         0         1           sdc       112           tot       1.00000  
     121  cha121                 121    3507.21689      42.07909       2.32954             0       121      s42139n2358e         0         0         0         1           sdc        91           tot       1.00000  
     122  cha122                 122    2876.48693      42.01811       2.48536             0       122      s41979n2527e         0         0         0         1           sdc       100           tot       1.00000  
     123  cha123                 123    1609.23083      42.11233       1.86077             0       123      s42122n1879e         0         0         0         1           sdc       635           tot       1.00000  
     124  cha124                 124    2229.42228      42.03886       2.93510             0       124      s42077n2991e         0         0         0         1           sdc       709           tot       1.00000  
     125  cha125                 125    2759.50945      42.17436       1.58897             0       125      s42169n1562e         0         0         0         1           sdc       606           tot       1.00000  
     126  cha126                 126    1400.04136      42.15096       2.59806             0       126      s42188n2471e         0         0         0         1           sdc       773           tot       1.00000  
     127  cha127                 127    3677.94079      42.19421       2.28475             0       127      s42222n2243e         0         0         0         1           sdc       750           tot       1.00000  
     128  cha128                 128    1944.35552      42.03625       2.38437             0       128      s41976n2398e         0         0         0         1           sdc       113           tot       1.00000  
     129  cha129                 129    4419.85206      42.02078       2.07677             0       129      s42041n2119e         0         0         0         1           sdc       816           tot       1.00000  
     130  cha130                 130    2068.70996      42.11287       2.77786             0       130      s42114n2792e         0         0         0         1           sdc       713           tot       1.00000  
     131  cha131                 131    1288.86005      42.12872       2.31980             0       131      s42139n2358e         0         0         0         1           sdc       747           tot       1.00000  
     132  cha132                 132    1772.05084      42.02944       2.46205             0       132      s41969n2414e         0         0         0         1           sdc       122           tot       1.00000  
     133  cha133                 133    3869.74172      42.01590       2.17293             0       133      s42041n2119e         0         0         0         1           sdc       171           tot       1.00000  
     134  cha134                 134    1752.55460      42.05000       1.90140             0       134      s42081n1962e         0         0         0         1           sdc       111           tot       1.00000  
     135  cha135                 135    1604.48850      42.08897       2.36438             0       135      s42139n2358e         0         0         0         1           sdc       121           tot       1.00000  
     136  cha136                 136    3157.86521      42.07898       2.59948             0       136      s41984n2601e         0         0         0         1           sdc       729           tot       1.00000  
     137  cha137                 137    1798.39712      42.12311       2.68165             0       137      s42114n2792e         0         0         0         1           sdc       772           tot       1.00000  
     138  cha138                 138    1953.84018      42.07876       1.90440             0       138      s42122n1879e         0         0         0         1           sdc       634           tot       1.00000  