hru-data.hru: written by SWAT+ editor v2.0.4 on 2021-11-15 12:52
      id  name                          topo             hydro              soil            lu_mgt   soil_plant_init         surf_stor              snow             field  
       1  hru00001              topohru00001          hyd00001              9702          shrb_lum        soilplant1              null           snow001              null  
       2  hru00002              topohru00002          hyd00002              9702          shrb_lum        soilplant1              null           snow001              null  
       3  hru00003              topohru00003          hyd00003              9702          orcd_lum        soilplant1              null           snow001              null  
       4  hru00004              topohru00004          hyd00004              9702          orcd_lum        soilplant1              null           snow001              null  
       5  hru00005              topohru00005          hyd00005              9712          orcd_lum        soilplant1              null           snow001              null  
       6  hru00006              topohru00006          hyd00006              9712          orcd_lum        soilplant1              null           snow001              null  
       7  hru00007              topohru00007          hyd00007              9702          frse_lum        soilplant1              null           snow001              null  
       8  hru00008              topohru00008          hyd00008              9702          frse_lum        soilplant1              null           snow001              null  
       9  hru00009              topohru00009          hyd00009              9712          frse_lum        soilplant1              null           snow001              null  
      10  hru00010              topohru00010          hyd00010              9712          frse_lum        soilplant1              null           snow001              null  
      11  hru00011              topohru00011          hyd00011              9702          oliv_lum        soilplant1              null           snow001              null  
      12  hru00012              topohru00012          hyd00012              9702          oliv_lum        soilplant1              null           snow001              null  
      13  hru00013              topohru00013          hyd00013              9712          oliv_lum        soilplant1              null           snow001              null  
      14  hru00014              topohru00014          hyd00014              9712          oliv_lum        soilplant1              null           snow001              null  
      15  hru00015              topohru00015          hyd00015              9712          oliv_lum        soilplant1              null           snow001              null  
      16  hru00016              topohru00016          hyd00016              9702          shrb_lum        soilplant1              null           snow001              null  
      17  hru00017              topohru00017          hyd00017              9702          frse_lum        soilplant1              null           snow001              null  
      18  hru00018              topohru00018          hyd00018              9702          frse_lum        soilplant1              null           snow001              null  
      19  hru00019              topohru00019          hyd00019              9702          oliv_lum        soilplant1              null           snow001              null  
      20  hru00020              topohru00020          hyd00020              9702          oliv_lum        soilplant1              null           snow001              null  
      21  hru00021              topohru00021          hyd00021              9712          oliv_lum        soilplant1              null           snow001              null  
      22  hru00022              topohru00022          hyd00022              9712          oliv_lum        soilplant1              null           snow001              null  
      23  hru00023              topohru00023          hyd00023              9712          oliv_lum        soilplant1              null           snow001              null  
      24  hru00024              topohru00024          hyd00024              9702          orcd_lum        soilplant1              null           snow001              null  
      25  hru00025              topohru00025          hyd00025              9702          orcd_lum        soilplant1              null           snow001              null  
      26  hru00026              topohru00026          hyd00026              9712          orcd_lum        soilplant1              null           snow001              null  
      27  hru00027              topohru00027          hyd00027              9712          orcd_lum        soilplant1              null           snow001              null  
      28  hru00028              topohru00028          hyd00028              9702          shrb_lum        soilplant1              null           snow001              null  
      29  hru00029              topohru00029          hyd00029              9702          frse_lum        soilplant1              null           snow001              null  
      30  hru00030              topohru00030          hyd00030              9702          oliv_lum        soilplant1              null           snow001              null  
      31  hru00031              topohru00031          hyd00031              9702          oliv_lum        soilplant1              null           snow001              null  
      32  hru00032              topohru00032          hyd00032              9702          oliv_lum        soilplant1              null           snow001              null  
      33  hru00033              topohru00033          hyd00033              9712          oliv_lum        soilplant1              null           snow001              null  
      34  hru00034              topohru00034          hyd00034              9712          oliv_lum        soilplant1              null           snow001              null  
      35  hru00035              topohru00035          hyd00035              9712          oliv_lum        soilplant1              null           snow001              null  
      36  hru00036              topohru00036          hyd00036              9712          orcd_lum        soilplant1              null           snow001              null  
      37  hru00037              topohru00037          hyd00037              9712          orcd_lum        soilplant1              null           snow001              null  
      38  hru00038              topohru00038          hyd00038              9702          shrb_lum        soilplant1              null           snow001              null  
      39  hru00039              topohru00039          hyd00039              9702          frse_lum        soilplant1              null           snow001              null  
      40  hru00040              topohru00040          hyd00040              9702          orcd_lum        soilplant1              null           snow001              null  
      41  hru00041              topohru00041          hyd00041              9702          orcd_lum        soilplant1              null           snow001              null  
      42  hru00042              topohru00042          hyd00042              9702          orcd_lum        soilplant1              null           snow001              null  
      43  hru00043              topohru00043          hyd00043              9702          shrb_lum        soilplant1              null           snow001              null  
      44  hru00044              topohru00044          hyd00044              9702          crgr_lum        soilplant1              null           snow001              null  
      45  hru00045              topohru00045          hyd00045              9702          crgr_lum        soilplant1              null           snow001              null  
      46  hru00046              topohru00046          hyd00046              9702          crgr_lum        soilplant1              null           snow001              null  
      47  hru00047              topohru00047          hyd00047              9702          frse_lum        soilplant1              null           snow001              null  
      48  hru00048              topohru00048          hyd00048              9702          orcd_lum        soilplant1              null           snow001              null  
      49  hru00049              topohru00049          hyd00049              9702          orcd_lum        soilplant1              null           snow001              null  
      50  hru00050              topohru00050          hyd00050              9702          frsd_lum        soilplant1              null           snow001              null  
      51  hru00051              topohru00051          hyd00051              9702          shrb_lum        soilplant1              null           snow001              null  
      52  hru00052              topohru00052          hyd00052              9702          frse_lum        soilplant1              null           snow001              null  
      53  hru00053              topohru00053          hyd00053              9730          frse_lum        soilplant1              null           snow001              null  
      54  hru00054              topohru00054          hyd00054              9702          orcd_lum        soilplant1              null           snow001              null  
      55  hru00055              topohru00055          hyd00055              9702          orcd_lum        soilplant1              null           snow001              null  
      56  hru00056              topohru00056          hyd00056              9730          orcd_lum        soilplant1              null           snow001              null  
      57  hru00057              topohru00057          hyd00057              9730          shrb_lum        soilplant1              null           snow001              null  
      58  hru00058              topohru00058          hyd00058              9730          frse_lum        soilplant1              null           snow001              null  
      59  hru00059              topohru00059          hyd00059              9730          frsd_lum        soilplant1              null           snow001              null  
      60  hru00060              topohru00060          hyd00060              9702          frsd_lum        soilplant1              null           snow001              null  
      61  hru00061              topohru00061          hyd00061              9730          crgr_lum        soilplant1              null           snow001              null  
      62  hru00062              topohru00062          hyd00062              9730          orcd_lum        soilplant1              null           snow001              null  
      63  hru00063              topohru00063          hyd00063              9702          frse_lum        soilplant1              null           snow001              null  
      64  hru00064              topohru00064          hyd00064              9735          frse_lum        soilplant1              null           snow001              null  
      65  hru00065              topohru00065          hyd00065              9735          frse_lum        soilplant1              null           snow001              null  
      66  hru00066              topohru00066          hyd00066              9730          oliv_lum        soilplant1              null           snow001              null  
      67  hru00067              topohru00067          hyd00067              9730          oliv_lum        soilplant1              null           snow001              null  
      68  hru00068              topohru00068          hyd00068              9735          oliv_lum        soilplant1              null           snow001              null  
      69  hru00069              topohru00069          hyd00069              9735          oliv_lum        soilplant1              null           snow001              null  
      70  hru00070              topohru00070          hyd00070              9730          shrb_lum        soilplant1              null           snow001              null  
      71  hru00071              topohru00071          hyd00071              9702          shrb_lum        soilplant1              null           snow001              null  
      72  hru00072              topohru00072          hyd00072              9702          crgr_lum        soilplant1              null           snow001              null  
      73  hru00073              topohru00073          hyd00073              9702          crgr_lum        soilplant1              null           snow001              null  
      74  hru00074              topohru00074          hyd00074              9730          crgr_lum        soilplant1              null           snow001              null  
      75  hru00075              topohru00075          hyd00075              9730          crgr_lum        soilplant1              null           snow001              null  
      76  hru00076              topohru00076          hyd00076              9735          crgr_lum        soilplant1              null           snow001              null  
      77  hru00077              topohru00077          hyd00077              9735          crgr_lum        soilplant1              null           snow001              null  
      78  hru00078              topohru00078          hyd00078              9730          crir_lum        soilplant1              null           snow001              null  
      79  hru00079              topohru00079          hyd00079              9730          crir_lum        soilplant1              null           snow001              null  
      80  hru00080              topohru00080          hyd00080              9735          crir_lum        soilplant1              null           snow001              null  
      81  hru00081              topohru00081          hyd00081              9735          crir_lum        soilplant1              null           snow001              null  
      82  hru00082              topohru00082          hyd00082              9730          orcd_lum        soilplant1              null           snow001              null  
      83  hru00083              topohru00083          hyd00083              9730          orcd_lum        soilplant1              null           snow001              null  
      84  hru00084              topohru00084          hyd00084              9730          orcd_lum        soilplant1              null           snow001              null  
      85  hru00085              topohru00085          hyd00085              9735          orcd_lum        soilplant1              null           snow001              null  
      86  hru00086              topohru00086          hyd00086              9735          orcd_lum        soilplant1              null           snow001              null  
      87  hru00087              topohru00087          hyd00087              9735          barl_lum        soilplant1              null           snow001              null  
      88  hru00088              topohru00088          hyd00088              9735          barl_lum        soilplant1              null           snow001              null  
      89  hru00089              topohru00089          hyd00089              9735          oliv_lum        soilplant1              null           snow001              null  
      90  hru00090              topohru00090          hyd00090              9735          oliv_lum        soilplant1              null           snow001              null  
      91  hru00091              topohru00091          hyd00091              9735          crir_lum        soilplant1              null           snow001              null  
      92  hru00092              topohru00092          hyd00092              9735          crir_lum        soilplant1              null           snow001              null  
      93  hru00093              topohru00093          hyd00093              9735          crgr_lum        soilplant1              null           snow001              null  
      94  hru00094              topohru00094          hyd00094              9735          crgr_lum        soilplant1              null           snow001              null  
      95  hru00095              topohru00095          hyd00095              9735          orcd_lum        soilplant1              null           snow001              null  
      96  hru00096              topohru00096          hyd00096              9735          orcd_lum        soilplant1              null           snow001              null  
      97  hru00097              topohru00097          hyd00097              9735          barl_lum        soilplant1              null           snow001              null  
      98  hru00098              topohru00098          hyd00098              9735          barl_lum        soilplant1              null           snow001              null  
      99  hru00099              topohru00099          hyd00099              9735          crir_lum        soilplant1              null           snow001              null  
     100  hru00100              topohru00100          hyd00100              9735          crir_lum        soilplant1              null           snow001              null  
     101  hru00101              topohru00101          hyd00101              9735          crgr_lum        soilplant1              null           snow001              null  
     102  hru00102              topohru00102          hyd00102              9735          crgr_lum        soilplant1              null           snow001              null  
     103  hru00103              topohru00103          hyd00103              9735          barl_lum        soilplant1              null           snow001              null  
     104  hru00104              topohru00104          hyd00104              9735          barl_lum        soilplant1              null           snow001              null  
     105  hru00105              topohru00105          hyd00105              9735          urmd_lum        soilplant1              null           snow001              null  
     106  hru00106              topohru00106          hyd00106              9735          urmd_lum        soilplant1              null           snow001              null  
     107  hru00107              topohru00107          hyd00107              9735          gras_lum        soilplant1              null           snow001              null  
     108  hru00108              topohru00108          hyd00108              9735          gras_lum        soilplant1              null           snow001              null  
     109  hru00109              topohru00109          hyd00109              9730          frse_lum        soilplant1              null           snow001              null  
     110  hru00110              topohru00110          hyd00110              9730          oliv_lum        soilplant1              null           snow001              null  
     111  hru00111              topohru00111          hyd00111              9730          oliv_lum        soilplant1              null           snow001              null  
     112  hru00112              topohru00112          hyd00112              9735          oliv_lum        soilplant1              null           snow001              null  
     113  hru00113              topohru00113          hyd00113              9735          oliv_lum        soilplant1              null           snow001              null  
     114  hru00114              topohru00114          hyd00114              9735          crgr_lum        soilplant1              null           snow001              null  
     115  hru00115              topohru00115          hyd00115              9735          crgr_lum        soilplant1              null           snow001              null  
     116  hru00116              topohru00116          hyd00116              9735          past_lum        soilplant1              null           snow001              null  
     117  hru00117              topohru00117          hyd00117              9735          past_lum        soilplant1              null           snow001              null  
     118  hru00118              topohru00118          hyd00118              9735          orcd_lum        soilplant1              null           snow001              null  
     119  hru00119              topohru00119          hyd00119              9735          orcd_lum        soilplant1              null           snow001              null  
     120  hru00120              topohru00120          hyd00120              9735          crir_lum        soilplant1              null           snow001              null  
     121  hru00121              topohru00121          hyd00121              9735          crir_lum        soilplant1              null           snow001              null  
     122  hru00122              topohru00122          hyd00122              9730          shrb_lum        soilplant1              null           snow001              null  
     123  hru00123              topohru00123          hyd00123              9730          frse_lum        soilplant1              null           snow001              null  
     124  hru00124              topohru00124          hyd00124              9730          frsd_lum        soilplant1              null           snow001              null  
     125  hru00125              topohru00125          hyd00125              9730          crgr_lum        soilplant1              null           snow001              null  
     126  hru00126              topohru00126          hyd00126              9730          crgr_lum        soilplant1              null           snow001              null  
     127  hru00127              topohru00127          hyd00127              9730          orcd_lum        soilplant1              null           snow001              null  
     128  hru00128              topohru00128          hyd00128              9730          orcd_lum        soilplant1              null           snow001              null  
     129  hru00129              topohru00129          hyd00129              9730          shrb_lum        soilplant1              null           snow001              null  
     130  hru00130              topohru00130          hyd00130              9732          shrb_lum        soilplant1              null           snow001              null  
     131  hru00131              topohru00131          hyd00131              9730          frse_lum        soilplant1              null           snow001              null  
     132  hru00132              topohru00132          hyd00132              9732          frse_lum        soilplant1              null           snow001              null  
     133  hru00133              topohru00133          hyd00133              9730          orcd_lum        soilplant1              null           snow001              null  
     134  hru00134              topohru00134          hyd00134              9730          orcd_lum        soilplant1              null           snow001              null  
     135  hru00135              topohru00135          hyd00135              9732          orcd_lum        soilplant1              null           snow001              null  
     136  hru00136              topohru00136          hyd00136              9732          orcd_lum        soilplant1              null           snow001              null  
     137  hru00137              topohru00137          hyd00137              9730          crgr_lum        soilplant1              null           snow001              null  
     138  hru00138              topohru00138          hyd00138              9730          crgr_lum        soilplant1              null           snow001              null  
     139  hru00139              topohru00139          hyd00139              9730          frsd_lum        soilplant1              null           snow001              null  
     140  hru00140              topohru00140          hyd00140              9730          shrb_lum        soilplant1              null           snow001              null  
     141  hru00141              topohru00141          hyd00141              9730          frsd_lum        soilplant1              null           snow001              null  
     142  hru00142              topohru00142          hyd00142              9730          orcd_lum        soilplant1              null           snow001              null  
     143  hru00143              topohru00143          hyd00143              9730          orcd_lum        soilplant1              null           snow001              null  
     144  hru00144              topohru00144          hyd00144              9735          orcd_lum        soilplant1              null           snow001              null  
     145  hru00145              topohru00145          hyd00145              9735          orcd_lum        soilplant1              null           snow001              null  
     146  hru00146              topohru00146          hyd00146              9730          crgr_lum        soilplant1              null           snow001              null  
     147  hru00147              topohru00147          hyd00147              9730          crgr_lum        soilplant1              null           snow001              null  
     148  hru00148              topohru00148          hyd00148              9730          frse_lum        soilplant1              null           snow001              null  
     149  hru00149              topohru00149          hyd00149              9730          oliv_lum        soilplant1              null           snow001              null  
     150  hru00150              topohru00150          hyd00150              9730          oliv_lum        soilplant1              null           snow001              null  
     151  hru00151              topohru00151          hyd00151              9735          oliv_lum        soilplant1              null           snow001              null  
     152  hru00152              topohru00152          hyd00152              9732          shrb_lum        soilplant1              null           snow001              null  
     153  hru00153              topohru00153          hyd00153              9730          shrb_lum        soilplant1              null           snow001              null  
     154  hru00154              topohru00154          hyd00154              9730          orcd_lum        soilplant1              null           snow001              null  
     155  hru00155              topohru00155          hyd00155              9730          orcd_lum        soilplant1              null           snow001              null  
     156  hru00156              topohru00156          hyd00156              9730          orcd_lum        soilplant1              null           snow001              null  
     157  hru00157              topohru00157          hyd00157              9735          orcd_lum        soilplant1              null           snow001              null  
     158  hru00158              topohru00158          hyd00158              9735          orcd_lum        soilplant1              null           snow001              null  
     159  hru00159              topohru00159          hyd00159              9735          orcd_lum        soilplant1              null           snow001              null  
     160  hru00160              topohru00160          hyd00160              9732          crgr_lum        soilplant1              null           snow001              null  
     161  hru00161              topohru00161          hyd00161              9732          crgr_lum        soilplant1              null           snow001              null  
     162  hru00162              topohru00162          hyd00162              9730          crgr_lum        soilplant1              null           snow001              null  
     163  hru00163              topohru00163          hyd00163              9730          crgr_lum        soilplant1              null           snow001              null  
     164  hru00164              topohru00164          hyd00164              9730          crgr_lum        soilplant1              null           snow001              null  
     165  hru00165              topohru00165          hyd00165              9735          crgr_lum        soilplant1              null           snow001              null  
     166  hru00166              topohru00166          hyd00166              9735          crgr_lum        soilplant1              null           snow001              null  
     167  hru00167              topohru00167          hyd00167              9732          frse_lum        soilplant1              null           snow001              null  
     168  hru00168              topohru00168          hyd00168              9735          frse_lum        soilplant1              null           snow001              null  
     169  hru00169              topohru00169          hyd00169              9735          frse_lum        soilplant1              null           snow001              null  
     170  hru00170              topohru00170          hyd00170              9730          frse_lum        soilplant1              null           snow001              null  
     171  hru00171              topohru00171          hyd00171              9730          frsd_lum        soilplant1              null           snow001              null  
     172  hru00172              topohru00172          hyd00172              9735          urmd_lum        soilplant1              null           snow001              null  