hru.con: written by SWAT+ editor v2.0.4 on 2021-11-15 12:52
      id  name                gis_id          area           lat           lon          elev       hru               wst       cst      ovfl      rule   out_tot  
       1  hru00001                 1     924.14354      40.88173       0.68225     278.25036         1       s40873n716e         0         0         0         0  
       2  hru00002                 2     154.91811      40.88381       0.68238     249.83550         2       s40873n716e         0         0         0         0  
       3  hru00003                 3      10.14045      40.89180       0.70509     182.93750         3       s40873n716e         0         0         0         0  
       4  hru00004                 4      39.92801      40.87869       0.69297     252.01587         4       s40873n716e         0         0         0         0  
       5  hru00005                 5      25.09321      40.88616       0.72005     130.30769         5       s40873n716e         0         0         0         0  
       6  hru00006                 6      78.49671      40.88901       0.72102     121.55738         6       s40873n716e         0         0         0         0  
       7  hru00007                 7      59.95480      40.89128       0.68868     234.37113         7       s40873n716e         0         0         0         0  
       8  hru00008                 8     282.46744      40.88726       0.69393     239.21007         8       s40873n716e         0         0         0         0  
       9  hru00009                 9      53.58797      40.88126       0.74487      99.36471         9       s40873n716e         0         0         0         0  
      10  hru00010                10     197.32983      40.87903       0.74114     140.94888        10       s40873n716e         0         0         0         0  
      11  hru00011                11     333.34913      40.88500       0.70320     196.94847        11       s40873n716e         0         0         0         0  
      12  hru00012                12     125.32401      40.88706       0.70799     167.12183        12       s40873n716e         0         0         0         0  
      13  hru00013                13     474.21163      40.88335       0.74691      85.37257        13       s40909n764e         0         0         0         0  
      14  hru00014                14     141.57289      40.88357       0.75078      70.93089        14       s40909n764e         0         0         0         0  
      15  hru00015                15     383.28270      40.88093       0.74427     107.76276        15       s40873n716e         0         0         0         0  
      16  hru00016                16    1910.92143      40.98214       0.73247     397.85257        16       s41043n740e         0         0         0         0  
      17  hru00017                17     349.26911      40.97546       0.72584     293.87873        17       s41043n740e         0         0         0         0  
      18  hru00018                18    2081.27899      40.97883       0.72946     337.58328        18       s41043n740e         0         0         0         0  
      19  hru00019                19     292.73536      40.92038       0.72260     168.40881        19       s40909n764e         0         0         0         0  
      20  hru00020                20     453.52501      40.91820       0.72533     145.11096        20       s40909n764e         0         0         0         0  
      21  hru00021                21     239.56814      40.90693       0.75839      93.18075        21       s40909n764e         0         0         0         0  
      22  hru00022                22     603.41928      40.90734       0.75167      93.43802        22       s40909n764e         0         0         0         0  
      23  hru00023                23     308.17685      40.90398       0.75514      84.77555        23       s40909n764e         0         0         0         0  
      24  hru00024                24      29.24306      40.92510       0.73640     135.61538        24       s40909n764e         0         0         0         0  
      25  hru00025                25       5.62367      40.92516       0.73624     135.10000        25       s40909n764e         0         0         0         0  
      26  hru00026                26      12.26981      40.91996       0.74120     115.40000        26       s40909n764e         0         0         0         0  
      27  hru00027                27      34.96897      40.91975       0.74080     117.82456        27       s40909n764e         0         0         0         0  
      28  hru00028                28    2465.77305      40.97785       0.78766     427.46636        28       s40909n764e         0         0         0         0  
      29  hru00029                29    2314.21822      40.97496       0.77074     350.71079        29       s40909n764e         0         0         0         0  
      30  hru00030                30      79.98727      40.95305       0.74732     192.58647        30       s40909n764e         0         0         0         0  
      31  hru00031                31      64.95207      40.95254       0.74027     195.75000        31       s40909n764e         0         0         0         0  
      32  hru00032                32      28.26618      40.95445       0.74201     188.14894        32       s40909n764e         0         0         0         0  
      33  hru00033                33     116.67316      40.92075       0.77588     106.21649        33       s40909n764e         0         0         0         0  
      34  hru00034                34      53.52532      40.91369       0.78739      77.86517        34       s40909n764e         0         0         0         0  
      35  hru00035                35     124.49147      40.91653       0.78303      90.37198        35       s40909n764e         0         0         0         0  
      36  hru00036                36       3.30774      40.93120       0.76474     145.60000        36       s40909n764e         0         0         0         0  
      37  hru00037                37       3.30774      40.93057       0.76579     144.00000        37       s40909n764e         0         0         0         0  
      38  hru00038                38    1616.69874      41.05327       0.86307     432.87907        38       s41151n824e         0         0         0         0  
      39  hru00039                39     367.11816      41.05710       0.87161     385.74074        39       s41151n824e         0         0         0         0  
      40  hru00040                40     105.13712      41.04407       0.85535     326.56831        40       s41151n824e         0         0         0         0  
      41  hru00041                41      24.70435      41.04568       0.85849     275.60465        41       s41151n824e         0         0         0         0  
      42  hru00042                42      29.87503      41.04251       0.85418     304.75000        42       s41151n824e         0         0         0         0  
      43  hru00043                43    2908.42411      41.02467       0.84555     389.85797        43       s41043n740e         0         0         0         0  
      44  hru00044                44     256.16437      41.02407       0.84166     321.67718        44       s41043n740e         0         0         0         0  
      45  hru00045                45      62.79758      41.02211       0.86294     232.61386        45       s41043n740e         0         0         0         0  
      46  hru00046                46      59.68878      41.02023       0.84544     253.07292        46       s41043n740e         0         0         0         0  
      47  hru00047                47     821.31578      41.01704       0.83294     381.98230        47       s41043n740e         0         0         0         0  
      48  hru00048                48     200.45306      41.01991       0.85230     270.46959        48       s41043n740e         0         0         0         0  
      49  hru00049                49      56.20812      41.02306       0.84096     265.57831        49       s41043n740e         0         0         0         0  
      50  hru00050                50     882.29623      41.14118       0.91008     470.43750        50       s41135n960e         0         0         0         0  
      51  hru00051                51     729.02812      41.15784       0.91524     456.00535        51       s41135n960e         0         0         0         0  
      52  hru00052                52     200.33922      41.15426       0.92052     412.35952        52       s41135n960e         0         0         0         0  
      53  hru00053                53      85.53165      41.15692       0.93699     405.40288        53       s41135n960e         0         0         0         0  
      54  hru00054                54      51.72081      41.14702       0.92425     307.57647        54       s41135n960e         0         0         0         0  
      55  hru00055                55       9.12720      41.14539       0.92475     271.93333        55       s41135n960e         0         0         0         0  
      56  hru00056                56      25.83170      41.14623       0.93677     284.83333        56       s41135n960e         0         0         0         0  
      57  hru00057                57     219.03611      41.14772       0.95556     357.22287        57       s41135n960e         0         0         0         0  
      58  hru00058                58     383.02036      41.14584       0.94816     346.20074        58       s41135n960e         0         0         0         0  
      59  hru00059                59       8.19921      41.13596       0.94205     358.07692        59       s41135n960e         0         0         0         0  
      60  hru00060                60      53.88054      41.13039       0.93235     410.86364        60       s41135n960e         0         0         0         0  
      61  hru00061                61      62.66541      41.14517       0.94904     300.03333        61       s41135n960e         0         0         0         0  
      62  hru00062                62      14.05579      41.14446       0.94115     277.50000        62       s41135n960e         0         0         0         0  
      63  hru00063                63     332.31119      41.11240       0.92623     332.71586        63       s41135n960e         0         0         0         0  
      64  hru00064                64      45.25892      41.08360       0.95249     139.34848        64       s41123n969e         0         0         0         0  
      65  hru00065                65      39.08724      41.08271       0.95029     143.71930        65       s41123n969e         0         0         0         0  
      66  hru00066                66     428.88601      41.12034       0.95813     203.98122        66       s41123n969e         0         0         0         0  
      67  hru00067                67     545.67188      41.11320       0.96041     166.03075        67       s41123n969e         0         0         0         0  
      68  hru00068                68     404.47779      41.09212       0.97164     105.49357        68       s41123n969e         0         0         0         0  
      69  hru00069                69     146.96460      41.09430       0.97761      97.37168        69       s41123n969e         0         0         0         0  
      70  hru00070                70     314.38162      41.11972       0.95001     263.96903        70       s41135n960e         0         0         0         0  
      71  hru00071                71     126.10132      41.11916       0.92734     389.36735        71       s41135n960e         0         0         0         0  
      72  hru00072                72      81.97202      41.11045       0.93025     277.39850        72       s41135n960e         0         0         0         0  
      73  hru00073                73      19.72259      41.10972       0.93188     253.53125        73       s41135n960e         0         0         0         0  
      74  hru00074                74     126.47349      41.10502       0.95264     162.72821        74       s41123n969e         0         0         0         0  
      75  hru00075                75      46.69790      41.10862       0.94481     198.29167        75       s41123n969e         0         0         0         0  
      76  hru00076                76     101.54995      41.09523       0.96770     105.84431        76       s41123n969e         0         0         0         0  
      77  hru00077                77      42.56585      41.09583       0.97364      98.72857        77       s41123n969e         0         0         0         0  
      78  hru00078                78      57.89579      41.11277       0.97338     128.20879        78       s41123n969e         0         0         0         0  
      79  hru00079                79      15.90544      41.11187       0.97387     123.08000        79       s41123n969e         0         0         0         0  
      80  hru00080                80     200.74202      41.08632       0.98409      74.09565        80       s41123n969e         0         0         0         0  
      81  hru00081                81     250.78205      41.08496       0.98350      71.08121        81       s41123n969e         0         0         0         0  
      82  hru00082                82      17.43336      41.10876       0.96414     139.70000        82       s41123n969e         0         0         0         0  
      83  hru00083                83      16.27114      41.10822       0.96793     121.32143        83       s41123n969e         0         0         0         0  
      84  hru00084                84      42.42118      41.10901       0.96688     125.83562        84       s41123n969e         0         0         0         0  
      85  hru00085                85      22.66337      41.08228       0.99072      64.41026        85       s41123n969e         0         0         0         0  
      86  hru00086                86      19.17670      41.08024       0.98772      61.45455        86       s41123n969e         0         0         0         0  
      87  hru00087                87       7.69473      41.09692       0.97874      94.75000        87       s41123n969e         0         0         0         0  
      88  hru00088                88      10.90086      41.09286       0.97726      87.23529        88       s41123n969e         0         0         0         0  
      89  hru00089                89     193.16617      41.10267       0.99638      98.42183        89       s41123n969e         0         0         0         0  
      90  hru00090                90     127.63782      41.10211       0.99732      95.75000        90       s41123n969e         0         0         0         0  
      91  hru00091                91     113.17897      41.08339       1.00393      58.61353        91       s41123n969e         0         0         0         0  
      92  hru00092                92     141.06365      41.08219       1.00393      55.43411        92       s41123n969e         0         0         0         0  
      93  hru00093                93      33.00342      41.08885       1.00522      67.48333        93       s41123n969e         0         0         0         0  
      94  hru00094                94      34.10354      41.08368       1.00789      55.27419        94       s41123n969e         0         0         0         0  
      95  hru00095                95      33.28069      41.07769       1.00449      47.73770        95       s41123n969e         0         0         0         0  
      96  hru00096                96      22.91457      41.07798       1.00514      48.47619        96       s41123n969e         0         0         0         0  
      97  hru00097                97       4.91027      41.08682       1.00771      60.44444        97      s41137n1024e         0         0         0         0  
      98  hru00098                98       5.45585      41.08149       1.00859      52.50000        98       s41123n969e         0         0         0         0  
      99  hru00099                99      21.73917      41.06062       1.01460      19.62500        99      s41081n1066e         0         0         0         0  
     100  hru00100               100      28.26093      41.06219       1.01453      20.82692       100      s41081n1066e         0         0         0         0  
     101  hru00101               101       7.41285      41.06791       1.01402      28.92308       101      s41081n1066e         0         0         0         0  
     102  hru00102               102      11.40439      41.06804       1.01362      28.20000       102      s41081n1066e         0         0         0         0  
     103  hru00103               103      11.57984      41.06240       1.01701      19.23810       103      s41081n1066e         0         0         0         0  
     104  hru00104               104       9.92558      41.06338       1.01533      21.88889       104      s41081n1066e         0         0         0         0  
     105  hru00105               105      18.27961      41.05752       1.02011      13.08824       105      s41081n1066e         0         0         0         0  
     106  hru00106               106      10.21507      41.05833       1.01973      13.57895       106      s41081n1066e         0         0         0         0  
     107  hru00107               107       8.06453      41.05476       1.01807       8.86667       107      s41081n1066e         0         0         0         0  
     108  hru00108               108       5.37635      41.05440       1.01917       6.30000       108      s41081n1066e         0         0         0         0  
     109  hru00109               109     143.32036      41.15034       0.97271     371.58182       109       s41135n960e         0         0         0         0  
     110  hru00110               110      93.50210      41.14283       0.98333     246.26027       110       s41154n998e         0         0         0         0  
     111  hru00111               111     332.38077      41.13504       0.98913     189.84200       111       s41154n998e         0         0         0         0  
     112  hru00112               112     309.56335      41.11751       1.00573     124.85283       112      s41137n1024e         0         0         0         0  
     113  hru00113               113     150.69310      41.11506       1.00721     117.30620       113      s41137n1024e         0         0         0         0  
     114  hru00114               114     294.54911      41.10014       1.01951      86.17920       114      s41137n1024e         0         0         0         0  
     115  hru00115               115     271.74111      41.09401       1.02331      70.96163       115      s41137n1024e         0         0         0         0  
     116  hru00116               116      95.54691      41.10273       1.01961      85.08537       116      s41137n1024e         0         0         0         0  
     117  hru00117               117      91.46869      41.10319       1.01757      87.70064       117      s41137n1024e         0         0         0         0  
     118  hru00118               118      48.35606      41.08917       1.02892      60.14458       118      s41081n1066e         0         0         0         0  
     119  hru00119               119      68.16456      41.08538       1.02779      53.13675       119      s41081n1066e         0         0         0         0  
     120  hru00120               120      57.67771      41.07754       1.02684      39.57576       120      s41081n1066e         0         0         0         0  
     121  hru00121               121      27.96495      41.07971       1.02609      44.12500       121      s41081n1066e         0         0         0         0  
     122  hru00122               122     224.57782      41.22193       0.96445     613.51821       122       s41250n914e         0         0         0         0  
     123  hru00123               123     145.79922      41.22074       0.95595     589.82063       123       s41250n914e         0         0         0         0  
     124  hru00124               124     546.15916      41.20807       0.94735     611.57631       124       s41250n914e         0         0         0         0  
     125  hru00125               125      28.11733      41.21005       0.97846     396.23913       125       s41154n998e         0         0         0         0  
     126  hru00126               126     141.19789      41.21731       0.96195     516.07359       126       s41250n914e         0         0         0         0  
     127  hru00127               127     423.30061      41.21016       0.96370     433.46636       127       s41250n914e         0         0         0         0  
     128  hru00128               128     121.68275      41.20972       0.96921     390.90957       128       s41154n998e         0         0         0         0  
     129  hru00129               129      79.96714      41.19502       0.98667     441.33803       129       s41154n998e         0         0         0         0  
     130  hru00130               130      71.57898      41.20168       1.00948     440.92105       130       s41154n998e         0         0         0         0  
     131  hru00131               131      36.34870      41.20682       0.99781     422.88333       131       s41154n998e         0         0         0         0  
     132  hru00132               132      21.25001      41.19450       1.00626     403.36842       132       s41154n998e         0         0         0         0  
     133  hru00133               133     212.28484      41.20399       0.99306     369.61473       133       s41154n998e         0         0         0         0  
     134  hru00134               134      90.80740      41.20358       0.99527     335.07285       134       s41154n998e         0         0         0         0  
     135  hru00135               135      42.92931      41.20014       1.00626     379.67105       135       s41154n998e         0         0         0         0  
     136  hru00136               136      12.99177      41.20718       1.00424     376.21739       136       s41154n998e         0         0         0         0  
     137  hru00137               137      31.81946      41.20318       0.99549     323.91667       137       s41154n998e         0         0         0         0  
     138  hru00138               138      68.27926      41.19794       0.99495     343.18447       138       s41154n998e         0         0         0         0  
     139  hru00139               139      71.01977      41.18651       0.99229     401.92623       139       s41154n998e         0         0         0         0  
     140  hru00140               140     256.20207      41.18936       0.97548     475.46173       140       s41154n998e         0         0         0         0  
     141  hru00141               141     508.83752      41.18888       0.95801     555.62452       141       s41154n998e         0         0         0         0  
     142  hru00142               142     195.06578      41.18073       0.97409     394.67893       142       s41154n998e         0         0         0         0  
     143  hru00143               143      65.89178      41.17590       0.98223     337.34653       143       s41154n998e         0         0         0         0  
     144  hru00144               144      81.49630      41.14711       1.02521     174.53333       144      s41137n1024e         0         0         0         0  
     145  hru00145               145      35.01323      41.14364       1.02637     164.93103       145      s41137n1024e         0         0         0         0  
     146  hru00146               146      96.73571      41.18054       0.98627     363.47945       146       s41154n998e         0         0         0         0  
     147  hru00147               147      70.89535      41.16911       1.00303     263.92523       147       s41154n998e         0         0         0         0  
     148  hru00148               148     125.42607      41.18308       0.95742     494.86010       148       s41135n960e         0         0         0         0  
     149  hru00149               149      58.51776      41.16878       1.00070     285.37079       149       s41154n998e         0         0         0         0  
     150  hru00150               150     232.75605      41.15597       1.00765     221.80508       150       s41154n998e         0         0         0         0  
     151  hru00151               151     105.80967      41.14335       1.01828     172.22152       151      s41137n1024e         0         0         0         0  
     152  hru00152               152      84.77225      41.19379       1.01491     407.29323       152       s41154n998e         0         0         0         0  
     153  hru00153               153      39.71847      41.17687       1.00425     332.69355       153       s41154n998e         0         0         0         0  
     154  hru00154               154      11.77716      41.17893       1.00954     271.45000       154       s41154n998e         0         0         0         0  
     155  hru00155               155      22.96546      41.17349       1.01332     238.92308       155       s41154n998e         0         0         0         0  
     156  hru00156               156       7.06630      41.17382       1.01431     234.41667       156       s41154n998e         0         0         0         0  
     157  hru00157               157       6.47744      41.17681       1.01951     256.81818       157       s41154n998e         0         0         0         0  
     158  hru00158               158      21.19889      41.17388       1.01745     239.30556       158       s41154n998e         0         0         0         0  
     159  hru00159               159       8.83287      41.17647       1.01613     243.60000       159       s41154n998e         0         0         0         0  
     160  hru00160               160      34.17392      41.18834       1.01669     326.64286       160       s41154n998e         0         0         0         0  
     161  hru00161               161       7.32298      41.18936       1.01802     321.75000       161       s41154n998e         0         0         0         0  
     162  hru00162               162      21.62515      41.18421       1.00985     290.75676       162       s41154n998e         0         0         0         0  
     163  hru00163               163      16.94944      41.17643       1.01310     243.44828       163       s41154n998e         0         0         0         0  
     164  hru00164               164      30.97656      41.17424       1.01453     239.00000       164       s41154n998e         0         0         0         0  
     165  hru00165               165      17.53390      41.18273       1.01614     285.93333       165       s41154n998e         0         0         0         0  
     166  hru00166               166       8.18249      41.17976       1.01804     272.64286       166       s41154n998e         0         0         0         0  
     167  hru00167               167      33.31442      41.18797       1.01546     329.75556       167       s41154n998e         0         0         0         0  
     168  hru00168               168       1.75339      41.19007       1.02132     343.00000       168       s41154n998e         0         0         0         0  
     169  hru00169               169      10.52034      41.18778       1.02115     344.83333       169       s41154n998e         0         0         0         0  
     170  hru00170               170       8.18249      41.18802       1.00813     320.76923       170       s41154n998e         0         0         0         0  
     171  hru00171               171      76.56471      41.17924       1.00290     352.38211       171       s41154n998e         0         0         0         0  
     172  hru00172               172      11.10481      41.17924       1.01622     264.42105       172       s41154n998e         0         0         0         0  
     173  hru00173               173      12.85820      41.17623       1.01705     249.00000       173       s41154n998e         0         0         0         0  
     174  hru00174               174       4.09124      41.17345       1.01774     236.57143       174       s41154n998e         0         0         0         0  
     175  hru00175               175       3.50678      41.17268       1.01766     234.00000       175       s41154n998e         0         0         0         0  
     176  hru00176               176       1.75339      41.17302       1.01808     230.33333       176       s41154n998e         0         0         0         0  
     177  hru00177               177       5.26017      41.17145       1.01967     239.77778       177       s41154n998e         0         0         0         0  
     178  hru00178               178     200.75180      41.17039       0.94875     504.23750       178       s41135n960e         0         0         0         0  
     179  hru00179               179      85.09479      41.18208       0.92967     592.23188       179       s41135n960e         0         0         0         0  
     180  hru00180               180     241.50141      41.16301       0.96932     401.76455       180       s41135n960e         0         0         0         0  
     181  hru00181               181      35.95555      41.18487       0.93230     540.78571       181       s41135n960e         0         0         0         0  
     182  hru00182               182     248.09326      41.17489       0.95426     455.41108       182       s41135n960e         0         0         0         0  