ls_unit.ele: written by SWAT+ editor v2.0.4 on 2021-11-15 12:53
      id  name                   obj_typ  obj_typ_no      bsn_frac      sub_frac      reg_frac  
       1  hru00001                   hru           1     6.1664E-4       0.28143       0.00000  
       2  hru00002                   hru           2     1.0337E-4       0.04718       0.00000  
       3  hru00003                   hru           3     6.7663E-6       0.00309       0.00000  
       4  hru00004                   hru           4     2.6642E-5       0.01216       0.00000  
       5  hru00005                   hru           5     1.6744E-5       0.00764       0.00000  
       6  hru00006                   hru           6     5.2377E-5       0.02390       0.00000  
       7  hru00007                   hru           7     4.0005E-5       0.01826       0.00000  
       8  hru00008                   hru           8     1.8848E-4       0.08602       0.00000  
       9  hru00009                   hru           9     3.5757E-5       0.01632       0.00000  
      10  hru00010                   hru          10     1.3167E-4       0.06009       0.00000  
      11  hru00011                   hru          11     2.2243E-4       0.10151       0.00000  
      12  hru00012                   hru          12     8.3623E-5       0.03816       0.00000  
      13  hru00013                   hru          13     3.1642E-4       0.14441       0.00000  
      14  hru00014                   hru          14     9.4465E-5       0.04311       0.00000  
      15  hru00015                   hru          15     2.5575E-4       0.11672       0.00000  
      16  hru00016                   hru          16     1.2751E-3       0.30231       0.00000  
      17  hru00017                   hru          17     2.3305E-4       0.05526       0.00000  
      18  hru00018                   hru          18     1.3887E-3       0.32926       0.00000  
      19  hru00019                   hru          19     1.9533E-4       0.04631       0.00000  
      20  hru00020                   hru          20     3.0262E-4       0.07175       0.00000  
      21  hru00021                   hru          21     1.5985E-4       0.03790       0.00000  
      22  hru00022                   hru          22     4.0263E-4       0.09546       0.00000  
      23  hru00023                   hru          23     2.0563E-4       0.04875       0.00000  
      24  hru00024                   hru          24     1.9513E-5       0.00463       0.00000  
      25  hru00025                   hru          25     3.7524E-6       0.00089       0.00000  
      26  hru00026                   hru          26     8.1871E-6       0.00194       0.00000  
      27  hru00027                   hru          27     2.3333E-5       0.00553       0.00000  
      28  hru00028                   hru          28     1.6453E-3       0.46927       0.00000  
      29  hru00029                   hru          29     1.5442E-3       0.44043       0.00000  
      30  hru00030                   hru          30     5.3372E-5       0.01522       0.00000  
      31  hru00031                   hru          31     4.3340E-5       0.01236       0.00000  
      32  hru00032                   hru          32     1.8861E-5       0.00538       0.00000  
      33  hru00033                   hru          33     7.7851E-5       0.02220       0.00000  
      34  hru00034                   hru          34     3.5715E-5       0.01019       0.00000  
      35  hru00035                   hru          35     8.3067E-5       0.02369       0.00000  
      36  hru00036                   hru          36     2.2071E-6       0.00063       0.00000  
      37  hru00037                   hru          37     2.2071E-6       0.00063       0.00000  
      38  hru00038                   hru          38     1.0787E-3       0.75422       0.00000  
      39  hru00039                   hru          39     2.4496E-4       0.17127       0.00000  
      40  hru00040                   hru          40     7.0153E-5       0.04905       0.00000  
      41  hru00041                   hru          41     1.6484E-5       0.01153       0.00000  
      42  hru00042                   hru          42     1.9934E-5       0.01394       0.00000  
      43  hru00043                   hru          43     1.9407E-3       0.66630       0.00000  
      44  hru00044                   hru          44     1.7093E-4       0.05869       0.00000  
      45  hru00045                   hru          45     4.1902E-5       0.01439       0.00000  
      46  hru00046                   hru          46     3.9828E-5       0.01367       0.00000  
      47  hru00047                   hru          47     5.4803E-4       0.18816       0.00000  
      48  hru00048                   hru          48     1.3375E-4       0.04592       0.00000  
      49  hru00049                   hru          49     3.7505E-5       0.01288       0.00000  
      50  hru00050                   hru          50     5.8872E-4       0.44473       0.00000  
      51  hru00051                   hru          51     4.8645E-4       0.36748       0.00000  
      52  hru00052                   hru          52     1.3368E-4       0.10098       0.00000  
      53  hru00053                   hru          53     5.7071E-5       0.04311       0.00000  
      54  hru00054                   hru          54     3.4511E-5       0.02607       0.00000  
      55  hru00055                   hru          55     6.0902E-6       0.00460       0.00000  
      56  hru00056                   hru          56     1.7236E-5       0.01302       0.00000  
      57  hru00057                   hru          57     1.4615E-4       0.29565       0.00000  
      58  hru00058                   hru          58     2.5557E-4       0.51700       0.00000  
      59  hru00059                   hru          59     5.4710E-6       0.01107       0.00000  
      60  hru00060                   hru          60     3.5952E-5       0.07273       0.00000  
      61  hru00061                   hru          61     4.1814E-5       0.08458       0.00000  
      62  hru00062                   hru          62     9.3788E-6       0.01897       0.00000  
      63  hru00063                   hru          63     2.2174E-4       0.09593       0.00000  
      64  hru00064                   hru          64     3.0199E-5       0.01307       0.00000  
      65  hru00065                   hru          65     2.6081E-5       0.01128       0.00000  
      66  hru00066                   hru          66     2.8618E-4       0.12381       0.00000  
      67  hru00067                   hru          67     3.6410E-4       0.15753       0.00000  
      68  hru00068                   hru          68     2.6989E-4       0.11677       0.00000  
      69  hru00069                   hru          69     9.8063E-5       0.04243       0.00000  
      70  hru00070                   hru          70     2.0977E-4       0.09076       0.00000  
      71  hru00071                   hru          71     8.4142E-5       0.03640       0.00000  
      72  hru00072                   hru          72     5.4696E-5       0.02366       0.00000  
      73  hru00073                   hru          73     1.3160E-5       0.00569       0.00000  
      74  hru00074                   hru          74     8.4390E-5       0.03651       0.00000  
      75  hru00075                   hru          75     3.1159E-5       0.01348       0.00000  
      76  hru00076                   hru          76     6.7760E-5       0.02932       0.00000  
      77  hru00077                   hru          77     2.8402E-5       0.01229       0.00000  
      78  hru00078                   hru          78     3.8631E-5       0.01671       0.00000  
      79  hru00079                   hru          79     1.0613E-5       0.00459       0.00000  
      80  hru00080                   hru          80     1.3395E-4       0.05795       0.00000  
      81  hru00081                   hru          81     1.6734E-4       0.07240       0.00000  
      82  hru00082                   hru          82     1.1632E-5       0.00503       0.00000  
      83  hru00083                   hru          83     1.0857E-5       0.00470       0.00000  
      84  hru00084                   hru          84     2.8306E-5       0.01225       0.00000  
      85  hru00085                   hru          85     1.5122E-5       0.00654       0.00000  
      86  hru00086                   hru          86     1.2796E-5       0.00554       0.00000  
      87  hru00087                   hru          87     5.1343E-6       0.00222       0.00000  
      88  hru00088                   hru          88     7.2736E-6       0.00315       0.00000  
      89  hru00089                   hru          89     1.2889E-4       0.27256       0.00000  
      90  hru00090                   hru          90     8.5167E-5       0.18010       0.00000  
      91  hru00091                   hru          91     7.5519E-5       0.15970       0.00000  
      92  hru00092                   hru          92     9.4125E-5       0.19904       0.00000  
      93  hru00093                   hru          93     2.2022E-5       0.04657       0.00000  
      94  hru00094                   hru          94     2.2756E-5       0.04812       0.00000  
      95  hru00095                   hru          95     2.2207E-5       0.04696       0.00000  
      96  hru00096                   hru          96     1.5290E-5       0.03233       0.00000  
      97  hru00097                   hru          97     3.2764E-6       0.00693       0.00000  
      98  hru00098                   hru          98     3.6404E-6       0.00770       0.00000  
      99  hru00099                   hru          99     1.4506E-5       0.16437       0.00000  
     100  hru00100                   hru         100     1.8857E-5       0.21368       0.00000  
     101  hru00101                   hru         101     4.9463E-6       0.05605       0.00000  
     102  hru00102                   hru         102     7.6096E-6       0.08623       0.00000  
     103  hru00103                   hru         103     7.7267E-6       0.08755       0.00000  
     104  hru00104                   hru         104     6.6229E-6       0.07505       0.00000  
     105  hru00105                   hru         105     1.2197E-5       0.13821       0.00000  
     106  hru00106                   hru         106     6.8161E-6       0.07724       0.00000  
     107  hru00107                   hru         107     5.3811E-6       0.06098       0.00000  
     108  hru00108                   hru         108     3.5874E-6       0.04065       0.00000  
     109  hru00109                   hru         109     9.5631E-5       0.07220       0.00000  
     110  hru00110                   hru         110     6.2390E-5       0.04711       0.00000  
     111  hru00111                   hru         111     2.2178E-4       0.16745       0.00000  
     112  hru00112                   hru         112     2.0656E-4       0.15596       0.00000  
     113  hru00113                   hru         113     1.0055E-4       0.07592       0.00000  
     114  hru00114                   hru         114     1.9654E-4       0.14839       0.00000  
     115  hru00115                   hru         115     1.8132E-4       0.13690       0.00000  
     116  hru00116                   hru         116     6.3754E-5       0.04814       0.00000  
     117  hru00117                   hru         117     6.1033E-5       0.04608       0.00000  
     118  hru00118                   hru         118     3.2266E-5       0.02436       0.00000  
     119  hru00119                   hru         119     4.5483E-5       0.03434       0.00000  
     120  hru00120                   hru         120     3.8486E-5       0.02906       0.00000  
     121  hru00121                   hru         121     1.8660E-5       0.01409       0.00000  
     122  hru00122                   hru         122     1.4985E-4       0.13771       0.00000  
     123  hru00123                   hru         123     9.7285E-5       0.08940       0.00000  
     124  hru00124                   hru         124     3.6443E-4       0.33490       0.00000  
     125  hru00125                   hru         125     1.8761E-5       0.01724       0.00000  
     126  hru00126                   hru         126     9.4215E-5       0.08658       0.00000  
     127  hru00127                   hru         127     2.8245E-4       0.25956       0.00000  
     128  hru00128                   hru         128     8.1193E-5       0.07461       0.00000  
     129  hru00129                   hru         129     5.3358E-5       0.10817       0.00000  
     130  hru00130                   hru         130     4.7761E-5       0.09682       0.00000  
     131  hru00131                   hru         131     2.4254E-5       0.04917       0.00000  
     132  hru00132                   hru         132     1.4179E-5       0.02874       0.00000  
     133  hru00133                   hru         133     1.4165E-4       0.28715       0.00000  
     134  hru00134                   hru         134     6.0592E-5       0.12283       0.00000  
     135  hru00135                   hru         135     2.8645E-5       0.05807       0.00000  
     136  hru00136                   hru         136     8.6688E-6       0.01757       0.00000  
     137  hru00137                   hru         137     2.1232E-5       0.04304       0.00000  
     138  hru00138                   hru         138     4.5560E-5       0.09236       0.00000  
     139  hru00139                   hru         139     4.7388E-5       0.09607       0.00000  
     140  hru00140                   hru         140     1.7095E-4       0.13980       0.00000  
     141  hru00141                   hru         141     3.3952E-4       0.27765       0.00000  
     142  hru00142                   hru         142     1.3016E-4       0.10644       0.00000  
     143  hru00143                   hru         143     4.3967E-5       0.03595       0.00000  
     144  hru00144                   hru         144     5.4379E-5       0.04447       0.00000  
     145  hru00145                   hru         145     2.3363E-5       0.01911       0.00000  
     146  hru00146                   hru         146     6.4547E-5       0.05278       0.00000  
     147  hru00147                   hru         147     4.7305E-5       0.03868       0.00000  
     148  hru00148                   hru         148     8.3691E-5       0.06844       0.00000  
     149  hru00149                   hru         149     3.9046E-5       0.03193       0.00000  
     150  hru00150                   hru         150     1.5531E-4       0.12701       0.00000  
     151  hru00151                   hru         151     7.0602E-5       0.05774       0.00000  
     152  hru00152                   hru         152     5.6565E-5       0.16672       0.00000  
     153  hru00153                   hru         153     2.6502E-5       0.07811       0.00000  
     154  hru00154                   hru         154     7.8584E-6       0.02316       0.00000  
     155  hru00155                   hru         155     1.5324E-5       0.04516       0.00000  
     156  hru00156                   hru         156     4.7150E-6       0.01390       0.00000  
     157  hru00157                   hru         157     4.3221E-6       0.01274       0.00000  
     158  hru00158                   hru         158     1.4145E-5       0.04169       0.00000  
     159  hru00159                   hru         159     5.8938E-6       0.01737       0.00000  
     160  hru00160                   hru         160     2.2803E-5       0.06721       0.00000  
     161  hru00161                   hru         161     4.8863E-6       0.01440       0.00000  
     162  hru00162                   hru         162     1.4429E-5       0.04253       0.00000  
     163  hru00163                   hru         163     1.1310E-5       0.03333       0.00000  
     164  hru00164                   hru         164     2.0669E-5       0.06092       0.00000  
     165  hru00165                   hru         165     1.1700E-5       0.03448       0.00000  
     166  hru00166                   hru         166     5.4598E-6       0.01609       0.00000  
     167  hru00167                   hru         167     2.2229E-5       0.06552       0.00000  
     168  hru00168                   hru         168     1.1700E-6       0.00345       0.00000  
     169  hru00169                   hru         169     7.0197E-6       0.02069       0.00000  
     170  hru00170                   hru         170     5.4598E-6       0.01609       0.00000  
     171  hru00171                   hru         171     5.1088E-5       0.15057       0.00000  
     172  hru00172                   hru         172     7.4097E-6       0.02184       0.00000  
     173  hru00173                   hru         173     8.5797E-6       0.02529       0.00000  
     174  hru00174                   hru         174     2.7299E-6       0.00805       0.00000  
     175  hru00175                   hru         175     2.3399E-6       0.00690       0.00000  
     176  hru00176                   hru         176     1.1700E-6       0.00345       0.00000  
     177  hru00177                   hru         177     3.5099E-6       0.01034       0.00000  
     178  hru00178                   hru         178     1.3395E-4       0.16784       0.00000  
     179  hru00179                   hru         179     5.6780E-5       0.07114       0.00000  
     180  hru00180                   hru         180     1.6114E-4       0.20190       0.00000  
     181  hru00181                   hru         181     2.3991E-5       0.03006       0.00000  
     182  hru00182                   hru         182     1.6554E-4       0.20741       0.00000  
     183  hru00183                   hru         183     2.0555E-4       0.25754       0.00000  
     184  hru00184                   hru         184     5.1162E-5       0.06410       0.00000  
     185  hru00185                   hru         185     6.9198E-5       0.35849       0.00000  
     186  hru00186                   hru         186     1.3420E-5       0.06953       0.00000  
     187  hru00187                   hru         187     1.5021E-5       0.07782       0.00000  
     188  hru00188                   hru         188     5.8208E-5       0.30156       0.00000  
     189  hru00189                   hru         189     1.8026E-5       0.09339       0.00000  
     190  hru00190                   hru         190     1.5021E-5       0.07782       0.00000  
     191  hru00191                   hru         191     4.1309E-6       0.02140       0.00000  
     192  hru00192                   hru         192     9.8061E-5       0.24465       0.00000  
     193  hru00193                   hru         193     4.3329E-5       0.10810       0.00000  
     194  hru00194                   hru         194     4.0690E-5       0.10152       0.00000  
     195  hru00195                   hru         195     5.6966E-5       0.14213       0.00000  
     196  hru00196                   hru         196     8.6894E-6       0.02168       0.00000  
     197  hru00197                   hru         197     9.9928E-6       0.02493       0.00000  
     198  hru00198                   hru         198     1.6565E-5       0.04133       0.00000  
     199  hru00199                   hru         199     1.6129E-5       0.04024       0.00000  
     200  hru00200                   hru         200     2.6749E-5       0.06674       0.00000  
     201  hru00201                   hru         201     3.0995E-5       0.07733       0.00000  
     202  hru00202                   hru         202     4.6705E-6       0.01165       0.00000  
     203  hru00203                   hru         203     1.6984E-6       0.00424       0.00000  
     204  hru00204                   hru         204     1.6308E-5       0.04069       0.00000  
     205  hru00205                   hru         205     2.9972E-5       0.07478       0.00000  
     206  hru00206                   hru         206     6.6645E-4       0.19309       0.00000  
     207  hru00207                   hru         207     2.7362E-4       0.07927       0.00000  
     208  hru00208                   hru         208     4.2758E-4       0.12388       0.00000  
     209  hru00209                   hru         209     3.0177E-4       0.08743       0.00000  
     210  hru00210                   hru         210     1.5495E-4       0.04489       0.00000  
     211  hru00211                   hru         211     1.9672E-4       0.05699       0.00000  
     212  hru00212                   hru         212     3.8709E-5       0.01121       0.00000  
     213  hru00213                   hru         213     6.1769E-6       0.00179       0.00000  
     214  hru00214                   hru         214     2.7906E-4       0.08085       0.00000  
     215  hru00215                   hru         215     7.4560E-4       0.21602       0.00000  
     216  hru00216                   hru         216     3.6095E-4       0.10458       0.00000  
     217  hru00217                   hru         217     2.2354E-4       0.18202       0.00000  
     218  hru00218                   hru         218     5.3552E-4       0.43605       0.00000  
     219  hru00219                   hru         219     3.0219E-5       0.02461       0.00000  
     220  hru00220                   hru         220     3.9246E-5       0.03196       0.00000  
     221  hru00221                   hru         221     7.3782E-5       0.06008       0.00000  
     222  hru00222                   hru         222     1.5630E-5       0.01273       0.00000  
     223  hru00223                   hru         223     5.6660E-5       0.04614       0.00000  
     224  hru00224                   hru         224     2.9307E-5       0.02386       0.00000  
     225  hru00225                   hru         225     9.7895E-5       0.07971       0.00000  
     226  hru00226                   hru         226     1.2593E-4       0.10254       0.00000  
     227  hru00227                   hru         227     3.8926E-7       0.00032       0.00000  
     228  hru00228                   hru         228     1.3175E-4       0.19345       0.00000  
     229  hru00229                   hru         229     5.0311E-5       0.07387       0.00000  
     230  hru00230                   hru         230     1.4226E-4       0.20889       0.00000  
     231  hru00231                   hru         231     7.3089E-5       0.10732       0.00000  
     232  hru00232                   hru         232     4.7622E-5       0.06993       0.00000  
     233  hru00233                   hru         233     2.9922E-5       0.04394       0.00000  
     234  hru00234                   hru         234     8.8932E-5       0.13058       0.00000  
     235  hru00235                   hru         235     8.5120E-5       0.12499       0.00000  
     236  hru00236                   hru         236     1.4750E-5       0.02166       0.00000  
     237  hru00237                   hru         237     1.7279E-5       0.02537       0.00000  
     238  hru00238                   hru         238     6.2381E-5       0.34384       0.00000  
     239  hru00239                   hru         239     3.8330E-5       0.21128       0.00000  
     240  hru00240                   hru         240     3.0900E-5       0.17032       0.00000  
     241  hru00241                   hru         241     1.9455E-5       0.10724       0.00000  
     242  hru00242                   hru         242     2.2486E-5       0.12394       0.00000  
     243  hru00243                   hru         243     7.8701E-6       0.04338       0.00000  
     244  hru00244                   hru         244     1.1251E-5       0.15534       0.00000  
     245  hru00245                   hru         245     1.5892E-5       0.21942       0.00000  
     246  hru00246                   hru         246     2.3838E-5       0.32913       0.00000  
     247  hru00247                   hru         247     4.2191E-6       0.05825       0.00000  
     248  hru00248                   hru         248     2.1096E-6       0.02913       0.00000  
     249  hru00249                   hru         249     7.0319E-6       0.09709       0.00000  
     250  hru00250                   hru         250     3.8675E-6       0.05340       0.00000  
     251  hru00251                   hru         251     7.0319E-7       0.00971       0.00000  
     252  hru00252                   hru         252     7.0319E-7       0.00971       0.00000  
     253  hru00253                   hru         253     1.7580E-6       0.02427       0.00000  
     254  hru00254                   hru         254     1.0548E-6       0.01456       0.00000  
     255  hru00255                   hru         255     3.4655E-5       0.04844       0.00000  
     256  hru00256                   hru         256     7.5218E-5       0.10513       0.00000  
     257  hru00257                   hru         257     5.1195E-5       0.07155       0.00000  
     258  hru00258                   hru         258     2.3010E-5       0.03216       0.00000  
     259  hru00259                   hru         259     5.2228E-5       0.07300       0.00000  
     260  hru00260                   hru         260     2.5932E-5       0.03624       0.00000  
     261  hru00261                   hru         261     5.8251E-5       0.08141       0.00000  
     262  hru00262                   hru         262     2.7945E-5       0.03906       0.00000  
     263  hru00263                   hru         263     2.0818E-5       0.02910       0.00000  
     264  hru00264                   hru         264     1.8627E-5       0.02603       0.00000  
     265  hru00265                   hru         265     5.0402E-5       0.07044       0.00000  
     266  hru00266                   hru         266     4.3828E-6       0.00613       0.00000  
     267  hru00267                   hru         267     1.2053E-5       0.01685       0.00000  
     268  hru00268                   hru         268     2.5566E-6       0.00357       0.00000  
     269  hru00269                   hru         269     7.5866E-5       0.10603       0.00000  
     270  hru00270                   hru         270     3.9547E-5       0.05527       0.00000  
     271  hru00271                   hru         271     5.5706E-5       0.07786       0.00000  
     272  hru00272                   hru         272     8.4178E-5       0.11765       0.00000  
     273  hru00273                   hru         273     1.0957E-6       0.00153       0.00000  
     274  hru00274                   hru         274     1.8262E-6       0.00255       0.00000  
     275  hru00275                   hru         275     1.1514E-4       0.22415       0.00000  
     276  hru00276                   hru         276     6.6814E-5       0.13007       0.00000  
     277  hru00277                   hru         277     3.6572E-5       0.07120       0.00000  
     278  hru00278                   hru         278     1.9444E-5       0.03785       0.00000  
     279  hru00279                   hru         279     4.9889E-5       0.09712       0.00000  
     280  hru00280                   hru         280     4.2279E-5       0.08231       0.00000  
     281  hru00281                   hru         281     1.4685E-5       0.02859       0.00000  
     282  hru00282                   hru         282     6.9538E-5       0.13537       0.00000  
     283  hru00283                   hru         283     2.4882E-5       0.04844       0.00000  
     284  hru00284                   hru         284     1.4448E-5       0.02813       0.00000  
     285  hru00285                   hru         285     2.8064E-5       0.05463       0.00000  
     286  hru00286                   hru         286     1.5636E-5       0.03044       0.00000  
     287  hru00287                   hru         287     1.1311E-5       0.02202       0.00000  
     288  hru00288                   hru         288     4.9770E-6       0.00969       0.00000  
     289  hru00289                   hru         289     1.7779E-4       0.23898       0.00000  
     290  hru00290                   hru         290     8.6535E-5       0.11632       0.00000  
     291  hru00291                   hru         291     1.0805E-5       0.01452       0.00000  
     292  hru00292                   hru         292     1.0033E-5       0.01349       0.00000  
     293  hru00293                   hru         293     8.8017E-5       0.11831       0.00000  
     294  hru00294                   hru         294     8.5242E-5       0.11458       0.00000  
     295  hru00295                   hru         295     3.4729E-6       0.00467       0.00000  
     296  hru00296                   hru         296     2.7011E-6       0.00363       0.00000  
     297  hru00297                   hru         297     3.8290E-5       0.05147       0.00000  
     298  hru00298                   hru         298     1.9977E-5       0.02685       0.00000  
     299  hru00299                   hru         299     1.4305E-4       0.19227       0.00000  
     300  hru00300                   hru         300     7.8061E-5       0.10493       0.00000  
     301  hru00301                   hru         301     1.3544E-5       0.05029       0.00000  
     302  hru00302                   hru         302     1.9035E-5       0.07068       0.00000  
     303  hru00303                   hru         303     3.9576E-5       0.14695       0.00000  
     304  hru00304                   hru         304     7.0107E-5       0.26031       0.00000  
     305  hru00305                   hru         305     1.9403E-5       0.07205       0.00000  
     306  hru00306                   hru         306     1.7882E-5       0.06640       0.00000  
     307  hru00307                   hru         307     2.1398E-5       0.07945       0.00000  