management.sch: written by SWAT+ editor v2.0.4 on 2021-11-15 12:53
name                       numb_ops  numb_auto            op_typ       mon       day        hu_sch          op_data1          op_data2      op_data3  
crgr_rot                          0          1  
                                                      pl_hv_crgr  
barl_rot                          0          1  
                                                      pl_hv_barl  
corn_rot                          0          1  
                                                      pl_hv_corn  
rice_rot                          0          1  
                                                      pl_hv_rice  
