object.cnt: written by SWAT+ editor v2.0.4 on 2021-11-15 12:52
name                   ls_area      tot_area       obj       hru      lhru       rtu       mfl       aqu       cha       res       rec      exco       dlr       can       pmp       out      lcha     aqu2d       hrd       wro  
ci_02             1498678.67223  1498678.67223     12835     10061         0       902         0        68         0         6       902         0         0         0         0         0       896         0         0         0  
