plant.ini: written by SWAT+ editor v2.0.4 on 2021-11-15 12:53
pcom_name          plt_cnt  rot_yr_ini          plt_name     lc_status      lai_init       bm_init      phu_init      plnt_pop      yrs_init      rsd_init  
shrb_comm                1         1  
                                        shrb             n       0.00000       0.00000       0.00000       0.00000       0.00000   10000.00000  
orcd_comm                1         1  
                                        orcd             y       2.00000   20000.00000       0.00000       0.00000       1.00000   10000.00000  
frse_comm                1         1  
                                        frse             y       2.00000   50000.00000       0.00000       0.00000       1.00000   10000.00000  
oliv_comm                1         1  
                                        oliv             y       2.00000   20000.00000       0.00000       0.00000       1.00000   10000.00000  
crgr_comm                1         1  
                                        crgr             n       0.00000       0.00000       0.00000       0.00000       0.00000   10000.00000  
frsd_comm                1         1  
                                        frsd             y       2.00000   50000.00000       0.00000       0.00000       1.00000   10000.00000  
crir_comm                1         1  
                                        crir             n       0.00000       0.00000       0.00000       0.00000       0.00000   10000.00000  
barl_comm                1         1  
                                        barl             y       2.00000    2000.00000       0.00000       0.00000       1.00000   10000.00000  
gras_comm                1         1  
                                        gras             n       0.00000       0.00000       0.00000       0.00000       0.00000   10000.00000  
past_comm                1         1  
                                        past             y       0.00000   20000.00000       0.00000       0.00000       1.00000   10000.00000  
grap_comm                1         1  
                                        grap             y       2.00000   20000.00000       0.00000       0.00000       1.00000   10000.00000  
crdy_comm                1         1  
                                        crdy             n       0.00000       0.00000       0.00000       0.00000       0.00000   10000.00000  
bsvg_comm                1         1  
                                        bsvg             n       0.00000       0.00000       0.00000       0.00000       0.00000   10000.00000  
wetw_comm                1         1  
                                        wetw             y       2.00000   50000.00000       0.00000       0.00000       1.00000   10000.00000  
frst_comm                1         1  
                                        frst             y       2.00000   50000.00000       0.00000       0.00000       1.00000   10000.00000  
alfa_comm                1         1  
                                        alfa             n       0.00000       0.00000       0.00000       0.00000       0.00000   10000.00000  
corn_comm                1         1  
                                        corn             n       0.00000       0.00000       0.00000       0.00000       0.00000   10000.00000  
wehb_comm                1         1  
                                        wehb             n       0.00000       0.00000       0.00000       0.00000       0.00000   10000.00000  
rice_comm                1         1  
                                        rice             n       0.00000       0.00000       0.00000       0.00000       0.00000   10000.00000  
