rout_unit.def: written by SWAT+ editor v2.0.4 on 2021-11-15 12:52
      id              name  elem_tot  elements  
       1           rtu0010         2      9888     -9900  
       2           rtu0020         2      9849     -9875  
       3           rtu0030         2      9938     -9949  
       4           rtu0040         2      9786     -9798  
       5           rtu0050         2      9762     -9785  
       6           rtu0060         2      9685     -9696  
       7           rtu0070         2      6798     -6799  
       8           rtu0080         2      9672     -9684  
       9           rtu0090         2      8688     -8689  
      10           rtu0100         2      6754     -6763  
      11           rtu0110         2      6742     -6747  
      12           rtu0120         2      6732     -6734  
      13           rtu0130         2      6723     -6731  
      14           rtu0140         2      9697     -9699  
      15           rtu0150         2      6715     -6718  
      16           rtu0160         2     10001    -10022  
      17           rtu0170         2     10055    -10061  
      18           rtu0180         2     10038    -10051  
      19           rtu0190         2      1892     -1893  
      20           rtu0200         2      9562     -9572  
      21           rtu0210         2      6704     -6708  
      22           rtu0220         2      9901     -9907  
      23           rtu0230         2      1867     -1869  
      24           rtu0240         2      1844     -1849  
      25           rtu0250         2      9515     -9517  
      26           rtu0260         2      1850     -1854  
      27           rtu0270         2      8690     -8694  
      28           rtu0280         2      8682     -8685  
      29           rtu0290         2      1826     -1830  
      30           rtu0300         2      6719     -6722  
      31           rtu0310         2      8671     -8672  
      32           rtu0320         2      9654     -9667  
      33           rtu0330         2     10053    -10054  
      34           rtu0340         2      7524     -7539  
      35           rtu0350         2      7298     -7309  
      36           rtu0360         2      7281     -7297  
      37           rtu0370         2      7452     -7472  
      38           rtu0380         2      7559     -7585  
      39           rtu0390         2      9929     -9937  
      40           rtu0400         2      2014     -2030  
      41           rtu0410         2      2055     -2059  
      42           rtu0420         2      2012     -2013  
      43           rtu0430         2      9259     -9274  
      44           rtu0440         2      9151     -9163  
      45           rtu0450         2      9119     -9138  
      46           rtu0460         2      9275     -9292  
      47           rtu0470         2      7210     -7234  
      48           rtu0480         2      9252     -9258  
      49           rtu0490         2      9212     -9225  
      50           rtu0500         2      7439     -7451  
      51           rtu0510         2      8952     -8968  
      52           rtu0520         2      7177     -7190  
      53           rtu0530         2      7138     -7147  
      54           rtu0540         2      8920     -8928  
      55           rtu0550         2      9002     -9005  
      56           rtu0560         2      6893     -6896  
      57           rtu0570         2      6870     -6872  
      58           rtu0580         2      8913     -8919  
      59           rtu0590         2      6852     -6854  
      60           rtu0600         2      6850     -6851  
      61           rtu0610         2      8929     -8931  
      62           rtu0620         2      6822     -6827  
      63           rtu0630         2      8936     -8951  
      64           rtu0640         2      6828     -6836  
      65           rtu0650         2      6467     -6470  
      66           rtu0660         2      8883     -8893  
      67           rtu0670         2      8742     -8765  
      68           rtu0680         2      8695     -8698  
      69           rtu0690         2      6786     -6792  
      70           rtu0700         2      8870     -8882  
      71           rtu0710         2      6817     -6821  
      72           rtu0720         2      8854     -8869  
      73           rtu0730         2      6809     -6816  
      74           rtu0740         2      8711     -8718  
      75           rtu0750         2      8812     -8821  
      76           rtu0760         2      6782     -6785  
      77           rtu0770         2      8702     -8710  
      78           rtu0780         2      2060     -2062  
      79           rtu0790         2      9191     -9211  
      80           rtu0800         2      9139     -9146  
      81           rtu0810         2      7403     -7414  
      82           rtu0820         2      8980     -9001  
      83           rtu0830         2      9952     -9959  
      84           rtu0840         2      9106     -9118  
      85           rtu0850         2      9950     -9951  
      86           rtu0860         2      9164     -9190  
      87           rtu0870         2      1964     -1967  
      88           rtu0880         2      2031     -2034  
      89           rtu0890         2      2203     -2205  
      90           rtu0900         2      7005     -7021  
      91           rtu0910         2      7082     -7115  
      92           rtu0920         2      8969     -8979  
      93           rtu0930         2      1991     -1995  
      94           rtu0940         2      9006     -9015  
      95           rtu0950         2      1959     -1963  
      96           rtu0960         2      9344     -9350  
      97           rtu0970         2      2139     -2144  
      98           rtu0980         2      7122     -7137  
      99           rtu0990         2      9370     -9376  
     100           rtu1000         2      7349     -7350  
     101           rtu1010         2      1970     -1973  
     102           rtu1020         2      1925     -1929  
     103           rtu1030         2      7256     -7267  
     104           rtu1040         2      6912     -6918  
     105           rtu1050         2      9100     -9105  
     106           rtu1060         2      7540     -7547  
     107           rtu1070         2      9377     -9388  
     108           rtu1080         2      9876     -9887  
     109           rtu1090         2      9324     -9332  
     110           rtu1100         2      1949     -1952  
     111           rtu1110         2      2132     -2135  
     112           rtu1120         2      9351     -9361  
     113           rtu1130         2      7586     -7590  
     114           rtu1140         2      7148     -7160  
     115           rtu1150         2      7310     -7318  
     116           rtu1160         2      1953     -1958  
     117           rtu1170         2      1894     -1899  
     118           rtu1180         2      2040     -2047  
     119           rtu1190         2      9457     -9474  
     120           rtu1200         2      9318     -9319  
     121           rtu1210         2      7116     -7121  
     122           rtu1220         2      7548     -7549  
     123           rtu1230         2      1987     -1990  
     124           rtu1240         2      7415     -7438  
     125           rtu1250         2      1934     -1936  
     126           rtu1260         2      9362     -9369  
     127           rtu1270         2      6837     -6840  
     128           rtu1280         2      7235     -7239  
     129           rtu1290         2      2105     -2112  
     130           rtu1300         2      6897     -6904  
     131           rtu1310         2      6865     -6866  
     132           rtu1320         2      7344     -7348  
     133           rtu1330         2      7166     -7176  
     134           rtu1340         2      2068     -2072  
     135           rtu1350         2      6977     -6978  
     136           rtu1360         2      6966     -6967  
     137           rtu1370         2      9413     -9422  
     138           rtu1380         2      2007     -2011  
     139           rtu1390         2      6907     -6911  
     140           rtu1400         2      6867     -6869  
     141           rtu1410         2      6855     -6864  
     142           rtu1420         1      1924  
     143           rtu1430         2      9147     -9150  
     144           rtu1440         2      7727     -7736  
     145           rtu1450         2      2734     -2744  
     146           rtu1460         2      2646     -2653  
     147           rtu1470         2      7745     -7748  
     148           rtu1480         2      7722     -7726  
     149           rtu1490         2      2708     -2715  
     150           rtu1500         2      2635     -2645  
     151           rtu1510         2      2579     -2588  
     152           rtu1520         2      2470     -2479  
     153           rtu1530         2      2393     -2411  
     154           rtu1540         2      2336     -2341  
     155           rtu1550         2      2277     -2283  
     156           rtu1560         2      2745     -2755  
     157           rtu1570         2      2630     -2634  
     158           rtu1580         2      2692     -2694  
     159           rtu1590         2      2377     -2385  
     160           rtu1600         2      2349     -2355  
     161           rtu1610         2      2267     -2270  
     162           rtu1620         2      2149     -2153  
     163           rtu1630         2      7790     -7795  
     164           rtu1640         2      5754     -5763  
     165           rtu1650         2      2145     -2148  
     166           rtu1660         2      2236     -2239  
     167           rtu1670         2      2120     -2124  
     168           rtu1680         2      7670     -7680  
     169           rtu1690         2      7591     -7596  
     170           rtu1700         2      2195     -2202  
     171           rtu1710         2      7632     -7639  
     172           rtu1720         2      7240     -7253  
     173           rtu1730         2      2113     -2119  
     174           rtu1740         2      7550     -7551  
     175           rtu1750         2      7702     -7706  
     176           rtu1760         2      7767     -7773  
     177           rtu1770         2      7931     -7942  
     178           rtu1780         2      7848     -7855  
     179           rtu1790         2      8011     -8018  
     180           rtu1800         2      7796     -7803  
     181           rtu1810         2      8003     -8004  
     182           rtu1820         2      5592     -5605  
     183           rtu1830         2      8019     -8022  
     184           rtu1840         2      5825     -5830  
     185           rtu1850         2      5819     -5822  
     186           rtu1860         2      8319     -8333  
     187           rtu1870         2      6602     -6618  
     188           rtu1880         2      6326     -6339  
     189           rtu1890         2      8060     -8077  
     190           rtu1900         2      8395     -8398  
     191           rtu1910         2      2589     -2592  
     192           rtu1920         2      8334     -8348  
     193           rtu1930         2      8383     -8394  
     194           rtu1940         2      6619     -6629  
     195           rtu1950         2      6300     -6325  
     196           rtu1960         2      8224     -8254  
     197           rtu1970         2      5577     -5591  
     198           rtu1980         2      6287     -6299  
     199           rtu1990         2      5540     -5546  
     200           rtu2000         2      8494     -8513  
     201           rtu2010         2      2437     -2444  
     202           rtu2020         2      5614     -5615  
     203           rtu2030         2      2615     -2623  
     204           rtu2040         2      7828     -7836  
     205           rtu2050         2      2366     -2370  
     206           rtu2060         2      2454     -2457  
     207           rtu2070         2      8567     -8588  
     208           rtu2080         2      8462     -8468  
     209           rtu2090         2      8105     -8120  
     210           rtu2100         2      8267     -8313  
     211           rtu2110         2      7856     -7873  
     212           rtu2120         2      6418     -6433  
     213           rtu2130         2      5686     -5698  
     214           rtu2140         2      8514     -8522  
     215           rtu2150         2      7980     -7981  
     216           rtu2160         2      6272     -6286  
     217           rtu2170         2      5700     -5709  
     218           rtu2180         2      6595     -6601  
     219           rtu2190         2      8023     -8059  
     220           rtu2200         2      2522     -2528  
     221           rtu2210         2      2501     -2504  
     222           rtu2220         2      6554     -6567  
     223           rtu2230         2      5639     -5650  
     224           rtu2240         2      6434     -6446  
     225           rtu2250         2      7737     -7744  
     226           rtu2260         2      5684     -5685  
     227           rtu2270         2      2535     -2539  
     228           rtu2280         2      8380     -8382  
     229           rtu2290         2      5537     -5539  
     230           rtu2300         2      7982     -7990  
     231           rtu2310         2      7818     -7827  
     232           rtu2320         2      6340     -6346  
     233           rtu2330         2      7991     -8002  
     234           rtu2340         2      5681     -5682  
     235           rtu2350         2      5726     -5753  
     236           rtu2360         2      5771     -5775  
     237           rtu2370         1      5683  
     238           rtu2380         2      8660     -8667  
     239           rtu2390         2      2552     -2555  
     240           rtu2400         1      5610  
     241           rtu2410         2      8658     -8659  
     242           rtu2420         2      2496     -2500  
     243           rtu2430         2      5606     -5609  
     244           rtu2440         2      2480     -2495  
     245           rtu2450         2      8589     -8599  
     246           rtu2460         2      2412     -2414  
     247           rtu2470         2      2386     -2392  
     248           rtu2480         2      8262     -8266  
     249           rtu2490         2      6377     -6404  
     250           rtu2500         2      2324     -2330  
     251           rtu2510         2      2331     -2335  
     252           rtu2520         2      8121     -8138  
     253           rtu2530         2      2245     -2255  
     254           rtu2540         2      7837     -7847  
     255           rtu2550         2      6541     -6553  
     256           rtu2560         2      3332     -3353  
     257           rtu2570         2      3252     -3262  
     258           rtu2580         2      3236     -3240  
     259           rtu2590         2      3209     -3211  
     260           rtu2600         2      3079     -3084  
     261           rtu2610         2      3027     -3032  
     262           rtu2620         2      2931     -2954  
     263           rtu2630         2      3587     -3605  
     264           rtu2640         2      3650     -3653  
     265           rtu2650         2      2975     -2981  
     266           rtu2660         2      2967     -2974  
     267           rtu2670         2      2893     -2900  
     268           rtu2680         2      2792     -2815  
     269           rtu2690         2      6061     -6075  
     270           rtu2700         2      5776     -5785  
     271           rtu2710         2      5953     -5964  
     272           rtu2720         2      2901     -2910  
     273           rtu2730         2      2911     -2917  
     274           rtu2740         2      5185     -5194  
     275           rtu2750         2      2861     -2862  
     276           rtu2760         2      5146     -5159  
     277           rtu2770         2      4827     -4847  
     278           rtu2780         2      4746     -4759  
     279           rtu2790         2      3432     -3436  
     280           rtu2800         2      4760     -4773  
     281           rtu2810         2      3542     -3555  
     282           rtu2820         2      3437     -3452  
     283           rtu2830         2      2776     -2787  
     284           rtu2840         2      6187     -6193  
     285           rtu2850         2      3392     -3399  
     286           rtu2860         2      4547     -4569  
     287           rtu2870         2      3464     -3479  
     288           rtu2880         2      6194     -6203  
     289           rtu2890         2      3453     -3463  
     290           rtu2900         2      6121     -6128  
     291           rtu2910         2      4440     -4448  
     292           rtu2920         2      4456     -4460  
     293           rtu2930         2      6076     -6078  
     294           rtu2940         2      5915     -5923  
     295           rtu2950         2      6018     -6041  
     296           rtu2960         2      5974     -5975  
     297           rtu2970         2      6011     -6017  
     298           rtu2980         2      5764     -5770  
     299           rtu2990         2      5951     -5952  
     300           rtu3000         2      2824     -2835  
     301           rtu3010         2      5924     -5933  
     302           rtu3020         2      4366     -4372  
     303           rtu3030         2      5823     -5824  
     304           rtu3040         2      5841     -5856  
     305           rtu3050         2      2695     -2707  
     306           rtu3060         1      5699  
     307           rtu3070         2      5817     -5818  
     308           rtu3080         2      3400     -3405  
     309           rtu3090         2      3297     -3306  
     310           rtu3100         2      3307     -3315  
     311           rtu3110         2      5195     -5203  
     312           rtu3120         2      5160     -5179  
     313           rtu3130         2      3068     -3078  
     314           rtu3140         2      4980     -4999  
     315           rtu3150         2      3187     -3196  
     316           rtu3160         2      2995     -3001  
     317           rtu3170         2      3016     -3026  
     318           rtu3180         2      4900     -4914  
     319           rtu3190         2      4671     -4706  
     320           rtu3200         2      5000     -5010  
     321           rtu3210         2      2960     -2966  
     322           rtu3220         2      4737     -4745  
     323           rtu3230         2      3480     -3487  
     324           rtu3240         2      3241     -3248  
     325           rtu3250         2      4712     -4736  
     326           rtu3260         2      2884     -2892  
     327           rtu3270         2      2863     -2869  
     328           rtu3280         2      3316     -3331  
     329           rtu3290         2      5481     -5485  
     330           rtu3300         2      5071     -5081  
     331           rtu3310         2      2918     -2923  
     332           rtu3320         2      5428     -5441  
     333           rtu3330         2      4627     -4642  
     334           rtu3340         2      6220     -6226  
     335           rtu3350         2      3354     -3365  
     336           rtu3360         2      6204     -6212  
     337           rtu3370         2      5122     -5132  
     338           rtu3380         2      5180     -5184  
     339           rtu3390         2      3047     -3058  
     340           rtu3400         2      3012     -3015  
     341           rtu3410         2      3366     -3379  
     342           rtu3420         2      2924     -2930  
     343           rtu3430         2      5451     -5458  
     344           rtu3440         2      5133     -5145  
     345           rtu3450         2      5488     -5494  
     346           rtu3460         2      5042     -5049  
     347           rtu3470         2      3059     -3061  
     348           rtu3480         2      5033     -5041  
     349           rtu3490         2      4378     -4383  
     350           rtu3500         2      3002     -3007  
     351           rtu3510         2      4504     -4505  
     352           rtu3520         2      3177     -3186  
     353           rtu3530         2      3125     -3135  
     354           rtu3540         2      4890     -4899  
     355           rtu3550         2      3380     -3391  
     356           rtu3560         2       966      -969  
     357           rtu3570         2      3204     -3208  
     358           rtu3580         2      4815     -4826  
     359           rtu3590         2      4792     -4814  
     360           rtu3600         2      3111     -3116  
     361           rtu3610         2      4710     -4711  
     362           rtu3620         2      3039     -3046  
     363           rtu3630         2      5486     -5487  
     364           rtu3640         2      3008     -3011  
     365           rtu3650         2      6079     -6083  
     366           rtu3660         2      4461     -4478  
     367           rtu3670         2      4328     -4334  
     368           rtu3680         2      4314     -4327  
     369           rtu3690         2      4062     -4068  
     370           rtu3700         2      3960     -3970  
     371           rtu3710         2      3828     -3838  
     372           rtu3720         2      3839     -3854  
     373           rtu3730         2      3818     -3827  
     374           rtu3740         2      3690     -3711  
     375           rtu3750         2      3712     -3716  
     376           rtu3760         2      3887     -3890  
     377           rtu3770         2      3891     -3900  
     378           rtu3780         2      3870     -3886  
     379           rtu3790         2      3858     -3869  
     380           rtu3800         2      3993     -4002  
     381           rtu3810         2      3912     -3924  
     382           rtu3820         2      4124     -4131  
     383           rtu3830         2      4069     -4082  
     384           rtu3840         2      3925     -3929  
     385           rtu3850         2      4055     -4061  
     386           rtu3860         2      3986     -3992  
     387           rtu3870         2      3901     -3911  
     388           rtu3880         2      5349     -5359  
     389           rtu3890         2      3269     -3292  
     390           rtu3900         2      1067     -1073  
     391           rtu3910         2      4003     -4012  
     392           rtu3920         2      5342     -5348  
     393           rtu3930         2      5301     -5309  
     394           rtu3940         2      3784     -3790  
     395           rtu3950         2      3626     -3630  
     396           rtu3960         2      5219     -5229  
     397           rtu3970         2      3631     -3638  
     398           rtu3980         2       744      -745  
     399           rtu3990         2      1544     -1553  
     400           rtu4000         2      1609     -1614  
     401           rtu4010         2      4048     -4054  
     402           rtu4020         2      4043     -4047  
     403           rtu4030         2      1591     -1599  
     404           rtu4040         2      3950     -3959  
     405           rtu4050         2       596      -610  
     406           rtu4060         2      3971     -3985  
     407           rtu4070         2      4147     -4151  
     408           rtu4080         2       589      -595  
     409           rtu4090         2      1738     -1742  
     410           rtu4100         2      1577     -1583  
     411           rtu4110         2       559      -570  
     412           rtu4120         2      1564     -1576  
     413           rtu4130         2       548      -558  
     414           rtu4140         2      4134     -4146  
     415           rtu4150         2      1554     -1563  
     416           rtu4160         2       791      -795  
     417           rtu4170         2      1706     -1709  
     418           rtu4180         2      1743     -1746  
     419           rtu4190         2      4132     -4133  
     420           rtu4200         2      1800     -1825  
     421           rtu4210         2      4183     -4191  
     422           rtu4220         2      1497     -1510  
     423           rtu4230         2      1669     -1673  
     424           rtu4240         2      5360     -5367  
     425           rtu4250         2      4152     -4163  
     426           rtu4260         2      1720     -1722  
     427           rtu4270         2      4171     -4177  
     428           rtu4280         2      3665     -3670  
     429           rtu4290         2      3855     -3857  
     430           rtu4300         2       474      -485  
     431           rtu4310         2      4013     -4025  
     432           rtu4320         2      5327     -5341  
     433           rtu4330         2      1723     -1725  
     434           rtu4340         2      4083     -4091  
     435           rtu4350         2      4272     -4278  
     436           rtu4360         2      3752     -3783  
     437           rtu4370         2      1324     -1327  
     438           rtu4380         2      1254     -1259  
     439           rtu4390         2      1437     -1443  
     440           rtu4400         2      3804     -3817  
     441           rtu4410         2      1710     -1719  
     442           rtu4420         2      4254     -4263  
     443           rtu4430         2      1456     -1477  
     444           rtu4440         2      1027     -1039  
     445           rtu4450         2      4264     -4271  
     446           rtu4460         2      1242     -1247  
     447           rtu4470         2      1040     -1045  
     448           rtu4480         2      1216     -1223  
     449           rtu4490         2      1658     -1668  
     450           rtu4500         2      4178     -4182  
     451           rtu4510         2      4164     -4170  
     452           rtu4520         2      1444     -1455  
     453           rtu4530         2      1019     -1026  
     454           rtu4540         2      1419     -1436  
     455           rtu4550         2      3661     -3664  
     456           rtu4560         2      3791     -3803  
     457           rtu4570         2      1175     -1179  
     458           rtu4580         2      1074     -1091  
     459           rtu4590         2      1092     -1111  
     460           rtu4600         2       951      -965  
     461           rtu4610         2       927      -950  
     462           rtu4620         2       876      -883  
     463           rtu4630         2       915      -926  
     464           rtu4640         2       796      -809  
     465           rtu4650         2      1631     -1650  
     466           rtu4660         2      1357     -1366  
     467           rtu4670         2      1308     -1323  
     468           rtu4680         2      1651     -1657  
     469           rtu4690         2       746      -754  
     470           rtu4700         2      1747     -1752  
     471           rtu4710         2      1224     -1241  
     472           rtu4720         2       228      -237  
     473           rtu4730         2       244      -254  
     474           rtu4740         2       238      -243  
     475           rtu4750         2       417      -423  
     476           rtu4760         2       884      -903  
     477           rtu4770         2       365      -374  
     478           rtu4780         2       375      -388  
     479           rtu4790         2       859      -865  
     480           rtu4800         2       399      -408  
     481           rtu4810         2       823      -835  
     482           rtu4820         2       389      -398  
     483           rtu4830         2       313      -323  
     484           rtu4840         2       152      -177  
     485           rtu4850         2       836      -843  
     486           rtu4860         2       185      -191  
     487           rtu4870         2       324      -330  
     488           rtu4880         2       129      -139  
     489           rtu4890         2        57       -62  
     490           rtu4900         2      1118     -1136  
     491           rtu4910         2       109      -121  
     492           rtu4920         2       255      -274  
     493           rtu4930         2       178      -184  
     494           rtu4940         2       122      -128  
     495           rtu4950         2      1137     -1153  
     496           rtu4960         2      1328     -1339  
     497           rtu4970         2       440      -450  
     498           rtu4980         2       486      -496  
     499           rtu4990         2       810      -822  
     500           rtu5000         2       782      -790  
     501           rtu5010         1      5786  
     502           rtu5020         2      5724     -5725  
     503           rtu5030         2         1       -15  
     504           rtu5040         2        16       -27  
     505           rtu5050         2        28       -37  
     506           rtu5060         2        63       -88  
     507           rtu5070         2        50       -56  