rout_unit.ele: written by SWAT+ editor v2.0.4 on 2021-11-15 12:52
      id  name                   obj_typ    obj_id          frac               dlr  
       1  hru00001                   hru         1     2.8143E-1                 0  
       2  hru00002                   hru         2     4.7176E-2                 0  
       3  hru00003                   hru         3     3.0880E-3                 0  
       4  hru00004                   hru         4     1.2159E-2                 0  
       5  hru00005                   hru         5     7.6415E-3                 0  
       6  hru00006                   hru         6     2.3904E-2                 0  
       7  hru00007                   hru         7     1.8258E-2                 0  
       8  hru00008                   hru         8     8.6018E-2                 0  
       9  hru00009                   hru         9     1.6319E-2                 0  
      10  hru00010                   hru        10     6.0092E-2                 0  
      11  hru00011                   hru        11     1.0151E-1                 0  
      12  hru00012                   hru        12     3.8164E-2                 0  
      13  hru00013                   hru        13     1.4441E-1                 0  
      14  hru00014                   hru        14     4.3113E-2                 0  
      15  hru00015                   hru        15     1.1672E-1                 0  
      16  hru00016                   hru        16     3.0231E-1                 0  
      17  hru00017                   hru        17     5.5255E-2                 0  
      18  hru00018                   hru        18     3.2926E-1                 0  
      19  hru00019                   hru        19     4.6312E-2                 0  
      20  hru00020                   hru        20     7.1749E-2                 0  
      21  hru00021                   hru        21     3.7900E-2                 0  
      22  hru00022                   hru        22     9.5463E-2                 0  
      23  hru00023                   hru        23     4.8754E-2                 0  
      24  hru00024                   hru        24     4.6263E-3                 0  
      25  hru00025                   hru        25     8.8968E-4                 0  
      26  hru00026                   hru        26     1.9411E-3                 0  
      27  hru00027                   hru        27     5.5322E-3                 0  
      28  hru00028                   hru        28     4.6927E-1                 0  
      29  hru00029                   hru        29     4.4043E-1                 0  
      30  hru00030                   hru        30     1.5223E-2                 0  
      31  hru00031                   hru        31     1.2361E-2                 0  
      32  hru00032                   hru        32     5.3794E-3                 0  
      33  hru00033                   hru        33     2.2204E-2                 0  
      34  hru00034                   hru        34     1.0187E-2                 0  
      35  hru00035                   hru        35     2.3692E-2                 0  
      36  hru00036                   hru        36     6.2951E-4                 0  
      37  hru00037                   hru        37     6.2951E-4                 0  
      38  hru00038                   hru        38     7.5422E-1                 0  
      39  hru00039                   hru        39     1.7127E-1                 0  
      40  hru00040                   hru        40     4.9049E-2                 0  
      41  hru00041                   hru        41     1.1525E-2                 0  
      42  hru00042                   hru        42     1.3937E-2                 0  
      43  hru00043                   hru        43     6.6630E-1                 0  
      44  hru00044                   hru        44     5.8685E-2                 0  
      45  hru00045                   hru        45     1.4386E-2                 0  
      46  hru00046                   hru        46     1.3674E-2                 0  
      47  hru00047                   hru        47     1.8816E-1                 0  
      48  hru00048                   hru        48     4.5922E-2                 0  
      49  hru00049                   hru        49     1.2877E-2                 0  
      50  hru00050                   hru        50     4.4473E-1                 0  
      51  hru00051                   hru        51     3.6748E-1                 0  
      52  hru00052                   hru        52     1.0098E-1                 0  
      53  hru00053                   hru        53     4.3113E-2                 0  
      54  hru00054                   hru        54     2.6071E-2                 0  
      55  hru00055                   hru        55     4.6007E-3                 0  
      56  hru00056                   hru        56     1.3021E-2                 0  
      57  hru00057                   hru        57     2.9565E-1                 0  
      58  hru00058                   hru        58     5.1700E-1                 0  
      59  hru00059                   hru        59     1.1067E-2                 0  
      60  hru00060                   hru        60     7.2727E-2                 0  
      61  hru00061                   hru        61     8.4585E-2                 0  
      62  hru00062                   hru        62     1.8972E-2                 0  
      63  hru00063                   hru        63     9.5933E-2                 0  
      64  hru00064                   hru        64     1.3065E-2                 0  
      65  hru00065                   hru        65     1.1284E-2                 0  
      66  hru00066                   hru        66     1.2381E-1                 0  
      67  hru00067                   hru        67     1.5753E-1                 0  
      68  hru00068                   hru        68     1.1677E-1                 0  
      69  hru00069                   hru        69     4.2426E-2                 0  
      70  hru00070                   hru        70     9.0757E-2                 0  
      71  hru00071                   hru        71     3.6403E-2                 0  
      72  hru00072                   hru        72     2.3664E-2                 0  
      73  hru00073                   hru        73     5.6936E-3                 0  
      74  hru00074                   hru        74     3.6511E-2                 0  
      75  hru00075                   hru        75     1.3481E-2                 0  
      76  hru00076                   hru        76     2.9316E-2                 0  
      77  hru00077                   hru        77     1.2288E-2                 0  
      78  hru00078                   hru        78     1.6714E-2                 0  
      79  hru00079                   hru        79     4.5916E-3                 0  
      80  hru00080                   hru        80     5.7951E-2                 0  
      81  hru00081                   hru        81     7.2396E-2                 0  
      82  hru00082                   hru        82     5.0327E-3                 0  
      83  hru00083                   hru        83     4.6972E-3                 0  
      84  hru00084                   hru        84     1.2246E-2                 0  
      85  hru00085                   hru        85     6.5425E-3                 0  
      86  hru00086                   hru        86     5.5360E-3                 0  
      87  hru00087                   hru        87     2.2213E-3                 0  
      88  hru00088                   hru        88     3.1469E-3                 0  
      89  hru00089                   hru        89     2.7256E-1                 0  
      90  hru00090                   hru        90     1.8010E-1                 0  
      91  hru00091                   hru        91     1.5970E-1                 0  
      92  hru00092                   hru        92     1.9904E-1                 0  
      93  hru00093                   hru        93     4.6568E-2                 0  
      94  hru00094                   hru        94     4.8120E-2                 0  
      95  hru00095                   hru        95     4.6959E-2                 0  
      96  hru00096                   hru        96     3.2333E-2                 0  
      97  hru00097                   hru        97     6.9284E-3                 0  
      98  hru00098                   hru        98     7.6982E-3                 0  
      99  hru00099                   hru        99     1.6437E-1                 0  
     100  hru00100                   hru       100     2.1368E-1                 0  
     101  hru00101                   hru       101     5.6048E-2                 0  
     102  hru00102                   hru       102     8.6228E-2                 0  
     103  hru00103                   hru       103     8.7555E-2                 0  
     104  hru00104                   hru       104     7.5047E-2                 0  
     105  hru00105                   hru       105     1.3821E-1                 0  
     106  hru00106                   hru       106     7.7236E-2                 0  
     107  hru00107                   hru       107     6.0976E-2                 0  
     108  hru00108                   hru       108     4.0650E-2                 0  
     109  hru00109                   hru       109     7.2204E-2                 0  
     110  hru00110                   hru       110     4.7106E-2                 0  
     111  hru00111                   hru       111     1.6745E-1                 0  
     112  hru00112                   hru       112     1.5596E-1                 0  
     113  hru00113                   hru       113     7.5919E-2                 0  
     114  hru00114                   hru       114     1.4839E-1                 0  
     115  hru00115                   hru       115     1.3690E-1                 0  
     116  hru00116                   hru       116     4.8136E-2                 0  
     117  hru00117                   hru       117     4.6082E-2                 0  
     118  hru00118                   hru       118     2.4362E-2                 0  
     119  hru00119                   hru       119     3.4341E-2                 0  
     120  hru00120                   hru       120     2.9058E-2                 0  
     121  hru00121                   hru       121     1.4089E-2                 0  
     122  hru00122                   hru       122     1.3771E-1                 0  
     123  hru00123                   hru       123     8.9402E-2                 0  
     124  hru00124                   hru       124     3.3490E-1                 0  
     125  hru00125                   hru       125     1.7241E-2                 0  
     126  hru00126                   hru       126     8.6580E-2                 0  
     127  hru00127                   hru       127     2.5956E-1                 0  
     128  hru00128                   hru       128     7.4614E-2                 0  
     129  hru00129                   hru       129     1.0817E-1                 0  
     130  hru00130                   hru       130     9.6823E-2                 0  
     131  hru00131                   hru       131     4.9168E-2                 0  
     132  hru00132                   hru       132     2.8744E-2                 0  
     133  hru00133                   hru       133     2.8715E-1                 0  
     134  hru00134                   hru       134     1.2283E-1                 0  
     135  hru00135                   hru       135     5.8069E-2                 0  
     136  hru00136                   hru       136     1.7574E-2                 0  
     137  hru00137                   hru       137     4.3041E-2                 0  
     138  hru00138                   hru       138     9.2360E-2                 0  
     139  hru00139                   hru       139     9.6067E-2                 0  
     140  hru00140                   hru       140     1.3980E-1                 0  
     141  hru00141                   hru       141     2.7765E-1                 0  
     142  hru00142                   hru       142     1.0644E-1                 0  
     143  hru00143                   hru       143     3.5954E-2                 0  
     144  hru00144                   hru       144     4.4469E-2                 0  
     145  hru00145                   hru       145     1.9105E-2                 0  
     146  hru00146                   hru       146     5.2785E-2                 0  
     147  hru00147                   hru       147     3.8685E-2                 0  
     148  hru00148                   hru       148     6.8440E-2                 0  
     149  hru00149                   hru       149     3.1931E-2                 0  
     150  hru00150                   hru       150     1.2701E-1                 0  
     151  hru00151                   hru       151     5.7736E-2                 0  
     152  hru00152                   hru       152     1.6672E-1                 0  
     153  hru00153                   hru       153     7.8112E-2                 0  
     154  hru00154                   hru       154     2.3161E-2                 0  
     155  hru00155                   hru       155     4.5165E-2                 0  
     156  hru00156                   hru       156     1.3897E-2                 0  
     157  hru00157                   hru       157     1.2739E-2                 0  
     158  hru00158                   hru       158     4.1690E-2                 0  
     159  hru00159                   hru       159     1.7371E-2                 0  
     160  hru00160                   hru       160     6.7208E-2                 0  
     161  hru00161                   hru       161     1.4402E-2                 0  
     162  hru00162                   hru       162     4.2529E-2                 0  
     163  hru00163                   hru       163     3.3333E-2                 0  
     164  hru00164                   hru       164     6.0920E-2                 0  
     165  hru00165                   hru       165     3.4483E-2                 0  
     166  hru00166                   hru       166     1.6092E-2                 0  
     167  hru00167                   hru       167     6.5517E-2                 0  
     168  hru00168                   hru       168     3.4483E-3                 0  
     169  hru00169                   hru       169     2.0690E-2                 0  
     170  hru00170                   hru       170     1.6092E-2                 0  
     171  hru00171                   hru       171     1.5057E-1                 0  
     172  hru00172                   hru       172     2.1839E-2                 0  
     173  hru00173                   hru       173     2.5287E-2                 0  
     174  hru00174                   hru       174     8.0460E-3                 0  
     175  hru00175                   hru       175     6.8966E-3                 0  
     176  hru00176                   hru       176     3.4483E-3                 0  
     177  hru00177                   hru       177     1.0345E-2                 0  
     178  hru00178                   hru       178     1.6784E-1                 0  
     179  hru00179                   hru       179     7.1142E-2                 0  
     180  hru00180                   hru       180     2.0190E-1                 0  
     181  hru00181                   hru       181     3.0060E-2                 0  
     182  hru00182                   hru       182     2.0741E-1                 0  
     183  hru00183                   hru       183     2.5754E-1                 0  
     184  hru00184                   hru       184     6.4104E-2                 0  
     185  hru00185                   hru       185     3.5849E-1                 0  
     186  hru00186                   hru       186     6.9525E-2                 0  
     187  hru00187                   hru       187     7.7821E-2                 0  
     188  hru00188                   hru       188     3.0156E-1                 0  
     189  hru00189                   hru       189     9.3385E-2                 0  
     190  hru00190                   hru       190     7.7821E-2                 0  
     191  hru00191                   hru       191     2.1401E-2                 0  
     192  hru00192                   hru       192     2.4465E-1                 0  
     193  hru00193                   hru       193     1.0810E-1                 0  
     194  hru00194                   hru       194     1.0152E-1                 0  
     195  hru00195                   hru       195     1.4213E-1                 0  
     196  hru00196                   hru       196     2.1679E-2                 0  
     197  hru00197                   hru       197     2.4931E-2                 0  
     198  hru00198                   hru       198     4.1328E-2                 0  
     199  hru00199                   hru       199     4.0240E-2                 0  
     200  hru00200                   hru       200     6.6737E-2                 0  
     201  hru00201                   hru       201     7.7331E-2                 0  
     202  hru00202                   hru       202     1.1653E-2                 0  
     203  hru00203                   hru       203     4.2373E-3                 0  
     204  hru00204                   hru       204     4.0688E-2                 0  
     205  hru00205                   hru       205     7.4778E-2                 0  
     206  hru00206                   hru       206     1.9309E-1                 0  
     207  hru00207                   hru       207     7.9273E-2                 0  
     208  hru00208                   hru       208     1.2388E-1                 0  
     209  hru00209                   hru       209     8.7430E-2                 0  
     210  hru00210                   hru       210     4.4893E-2                 0  
     211  hru00211                   hru       211     5.6993E-2                 0  
     212  hru00212                   hru       212     1.1215E-2                 0  
     213  hru00213                   hru       213     1.7896E-3                 0  
     214  hru00214                   hru       214     8.0849E-2                 0  
     215  hru00215                   hru       215     2.1602E-1                 0  
     216  hru00216                   hru       216     1.0458E-1                 0  
     217  hru00217                   hru       217     1.8202E-1                 0  
     218  hru00218                   hru       218     4.3605E-1                 0  
     219  hru00219                   hru       219     2.4606E-2                 0  
     220  hru00220                   hru       220     3.1956E-2                 0  
     221  hru00221                   hru       221     6.0078E-2                 0  
     222  hru00222                   hru       222     1.2727E-2                 0  
     223  hru00223                   hru       223     4.6136E-2                 0  
     224  hru00224                   hru       224     2.3863E-2                 0  
     225  hru00225                   hru       225     7.9712E-2                 0  
     226  hru00226                   hru       226     1.0254E-1                 0  
     227  hru00227                   hru       227     3.1696E-4                 0  
     228  hru00228                   hru       228     1.9345E-1                 0  
     229  hru00229                   hru       229     7.3875E-2                 0  
     230  hru00230                   hru       230     2.0889E-1                 0  
     231  hru00231                   hru       231     1.0732E-1                 0  
     232  hru00232                   hru       232     6.9926E-2                 0  
     233  hru00233                   hru       233     4.3936E-2                 0  
     234  hru00234                   hru       234     1.3058E-1                 0  
     235  hru00235                   hru       235     1.2499E-1                 0  
     236  hru00236                   hru       236     2.1658E-2                 0  
     237  hru00237                   hru       237     2.5371E-2                 0  
     238  hru00238                   hru       238     3.4384E-1                 0  
     239  hru00239                   hru       239     2.1128E-1                 0  
     240  hru00240                   hru       240     1.7032E-1                 0  
     241  hru00241                   hru       241     1.0724E-1                 0  
     242  hru00242                   hru       242     1.2394E-1                 0  
     243  hru00243                   hru       243     4.3380E-2                 0  
     244  hru00244                   hru       244     1.5534E-1                 0  
     245  hru00245                   hru       245     2.1942E-1                 0  
     246  hru00246                   hru       246     3.2913E-1                 0  
     247  hru00247                   hru       247     5.8252E-2                 0  
     248  hru00248                   hru       248     2.9126E-2                 0  
     249  hru00249                   hru       249     9.7087E-2                 0  
     250  hru00250                   hru       250     5.3398E-2                 0  
     251  hru00251                   hru       251     9.7087E-3                 0  
     252  hru00252                   hru       252     9.7087E-3                 0  
     253  hru00253                   hru       253     2.4272E-2                 0  
     254  hru00254                   hru       254     1.4563E-2                 0  
     255  hru00255                   hru       255     4.8435E-2                 0  
     256  hru00256                   hru       256     1.0513E-1                 0  
     257  hru00257                   hru       257     7.1552E-2                 0  
     258  hru00258                   hru       258     3.2159E-2                 0  
     259  hru00259                   hru       259     7.2996E-2                 0  
     260  hru00260                   hru       260     3.6243E-2                 0  
     261  hru00261                   hru       261     8.1413E-2                 0  
     262  hru00262                   hru       262     3.9056E-2                 0  
     263  hru00263                   hru       263     2.9096E-2                 0  
     264  hru00264                   hru       264     2.6034E-2                 0  
     265  hru00265                   hru       265     7.0444E-2                 0  
     266  hru00266                   hru       266     6.1256E-3                 0  
     267  hru00267                   hru       267     1.6845E-2                 0  
     268  hru00268                   hru       268     3.5733E-3                 0  
     269  hru00269                   hru       269     1.0603E-1                 0  
     270  hru00270                   hru       270     5.5273E-2                 0  
     271  hru00271                   hru       271     7.7857E-2                 0  
     272  hru00272                   hru       272     1.1765E-1                 0  
     273  hru00273                   hru       273     1.5314E-3                 0  
     274  hru00274                   hru       274     2.5523E-3                 0  
     275  hru00275                   hru       275     2.2415E-1                 0  
     276  hru00276                   hru       276     1.3007E-1                 0  
     277  hru00277                   hru       277     7.1197E-2                 0  
     278  hru00278                   hru       278     3.7852E-2                 0  
     279  hru00279                   hru       279     9.7121E-2                 0  
     280  hru00280                   hru       280     8.2306E-2                 0  
     281  hru00281                   hru       281     2.8588E-2                 0  
     282  hru00282                   hru       282     1.3537E-1                 0  
     283  hru00283                   hru       283     4.8440E-2                 0  
     284  hru00284                   hru       284     2.8126E-2                 0  
     285  hru00285                   hru       285     5.4634E-2                 0  
     286  hru00286                   hru       286     3.0439E-2                 0  
     287  hru00287                   hru       287     2.2020E-2                 0  
     288  hru00288                   hru       288     9.6889E-3                 0  
     289  hru00289                   hru       289     2.3898E-1                 0  
     290  hru00290                   hru       290     1.1632E-1                 0  
     291  hru00291                   hru       291     1.4523E-2                 0  
     292  hru00292                   hru       292     1.3485E-2                 0  
     293  hru00293                   hru       293     1.1831E-1                 0  
     294  hru00294                   hru       294     1.1458E-1                 0  
     295  hru00295                   hru       295     4.6680E-3                 0  
     296  hru00296                   hru       296     3.6307E-3                 0  
     297  hru00297                   hru       297     5.1467E-2                 0  
     298  hru00298                   hru       298     2.6852E-2                 0  
     299  hru00299                   hru       299     1.9227E-1                 0  
     300  hru00300                   hru       300     1.0493E-1                 0  
     301  hru00301                   hru       301     5.0290E-2                 0  
     302  hru00302                   hru       302     7.0678E-2                 0  
     303  hru00303                   hru       303     1.4695E-1                 0  
     304  hru00304                   hru       304     2.6031E-1                 0  
     305  hru00305                   hru       305     7.2046E-2                 0  
     306  hru00306                   hru       306     6.6395E-2                 0  
     307  hru00307                   hru       307     7.9450E-2                 0  
     308  hru00308                   hru       308     3.3453E-2                 0  
     309  hru00309                   hru       309     9.0797E-2                 0  
     310  hru00310                   hru       310     2.6139E-2                 0  
     311  hru00311                   hru       311     5.6709E-2                 0  
     312  hru00312                   hru       312     4.6785E-2                 0  
     313  hru00313                   hru       313     1.6089E-1                 0  
     314  hru00314                   hru       314     5.2970E-2                 0  
     315  hru00315                   hru       315     3.8911E-1                 0  
     316  hru00316                   hru       316     6.7389E-2                 0  
     317  hru00317                   hru       317     5.2413E-2                 0  
     318  hru00318                   hru       318     8.3843E-2                 0  
     319  hru00319                   hru       319     2.2592E-2                 0  
     320  hru00320                   hru       320     6.8812E-2                 0  
     321  hru00321                   hru       321     3.6139E-2                 0  
     322  hru00322                   hru       322     5.6068E-2                 0  
     323  hru00323                   hru       323     9.7734E-3                 0  
     324  hru00324                   hru       324     7.5671E-2                 0  
     325  hru00325                   hru       325     8.8645E-2                 0  
     326  hru00326                   hru       326     4.2081E-1                 0  
     327  hru00327                   hru       327     2.1779E-1                 0  
     328  hru00328                   hru       328     1.0161E-1                 0  
     329  hru00329                   hru       329     4.9318E-2                 0  
     330  hru00330                   hru       330     4.6151E-2                 0  
     331  hru00331                   hru       331     9.5257E-2                 0  
     332  hru00332                   hru       332     1.2830E-2                 0  
     333  hru00333                   hru       333     8.5076E-2                 0  
     334  hru00334                   hru       334     1.9123E-2                 0  
     335  hru00335                   hru       335     3.7325E-2                 0  
     336  hru00336                   hru       336     1.4774E-2                 0  
     337  hru00337                   hru       337     4.7045E-2                 0  
     338  hru00338                   hru       338     2.1384E-2                 0  
     339  hru00339                   hru       339     7.8149E-2                 0  
     340  hru00340                   hru       340     2.7994E-2                 0  
     341  hru00341                   hru       341     2.5272E-2                 0  
     342  hru00342                   hru       342     5.6774E-3                 0  
     343  hru00343                   hru       343     3.2036E-2                 0  
     344  hru00344                   hru       344     1.8347E-2                 0  
     345  hru00345                   hru       345     5.5914E-2                 0  
     346  hru00346                   hru       346     2.0218E-2                 0  
     347  hru00347                   hru       347     2.4495E-2                 0  
     348  hru00348                   hru       348     3.2271E-2                 0  
     349  hru00349                   hru       349     1.1286E-1                 0  
     350  hru00350                   hru       350     2.0886E-2                 0  
     351  hru00351                   hru       351     1.6719E-2                 0  