soil_plant.ini: written by SWAT+ editor v2.0.4 on 2021-11-15 12:53
name                   sw_frac         nutrients              pest              path              hmet              salt  
soilplant1             0.00000          soilnut1              null              null              null              null  
