soils.sol: written by SWAT+ editor v2.0.4 on 2021-11-15 12:53
name                            nly           hyd_grp        dp_tot    anion_excl      perc_crk  texture                              dp            bd           awc        soil_k        carbon          clay          silt          sand          rock           alb        usle_k            ec         caco3            ph  
9740                              2                 C     400.00000       0.50000       0.50000  2                          
                                                                                                                               300.00000       1.37387       0.04404      66.00000       2.26650      18.95000      30.40000      50.65000       8.85000       0.22445       0.12077       0.00000       0.00000       0.00000  
                                                                                                                               700.00000       1.34162       0.27914      62.69975       2.26650       5.80000       8.15000      11.05000       2.15000       0.21776       0.13635       0.00000       0.00000       0.00000  
9530                              2                 C     800.00000       0.50000       0.50000  2                          
                                                                                                                               300.00000       1.47910       0.05389      62.00000       2.17100      19.30000      37.80000      42.90000      10.40000       0.22189       0.11853       0.00000       0.00000       0.00000  
                                                                                                                               700.00000       1.44685       0.06475      74.01383       2.17100      19.60000      33.70000      46.70000      14.70000       0.22283       0.12503       0.00000       0.00000       0.00000  
9733                              2                 C     600.00000       0.50000       0.50000  2                          
                                                                                                                               300.00000       1.50476       0.14076      23.00000       1.44600      21.40000      36.60000      42.00000      17.60000       0.22082       0.15078       0.00000       0.00000       0.00000  
                                                                                                                               700.00000       1.47251       0.14092      27.31936       1.44600      16.00000      27.40000      36.60000      19.40000       0.22279       0.14969       0.00000       0.00000       0.00000  
9730                              2                 C     400.00000       0.50000       0.50000  2                          
                                                                                                                               300.00000       1.46873       0.05208      62.00000       1.04700      20.10000      34.40000      45.50000      21.40000       0.22316       0.11708       0.00000       0.00000       0.00000  
                                                                                                                               700.00000       1.43648       0.08158      78.34137       1.04700      17.60000      28.50000      43.90000      22.00000       0.22454       0.13177       0.00000       0.00000       0.00000  
9699                              2                 C     800.00000       0.50000       0.50000  2                          
                                                                                                                               300.00000       1.32488       0.11699      46.00000       0.71300      22.05000      37.75000      40.20000       8.10000       0.22047       0.13221       0.00000       0.00000       0.00000  
                                                                                                                               700.00000       1.29263       0.21417     117.89494       0.71300      26.85000      36.70000      36.45000       9.30000       0.21636       0.13421       0.00000       0.00000       0.00000  
9673                              2                 C              null       0.50000       0.50000  2                          
                                                                                                                               300.00000       1.21129       0.10668      37.00000       0.61000      18.60000      47.00000      34.40000      13.20000       0.22115       0.13514       0.00000       0.00000       0.00000  
                                                                                                                               700.00000       1.17904       0.09906      44.44704       0.61000      19.00000      45.40000      35.60000      10.00000       0.22126       0.13386       0.00000       0.00000       0.00000  
9702                              2                 C     600.00000       0.50000       0.50000  2                          
                                                                                                                               300.00000       1.41402       0.13555      62.00000       1.45350      23.10000      39.25000      37.65000      12.55000       0.21850       0.12558       0.00000       0.00000       0.00000  
                                                                                                                               700.00000       1.38177       0.15750      83.86719       1.45350      11.50000      18.65000      14.85000       3.30000       0.21767       0.12650       0.00000       0.00000       0.00000  
9700                              2                 C     400.00000       0.50000       0.50000  2                          
                                                                                                                               300.00000       1.41727       0.12365      42.00000       2.10850      21.25000      39.20000      39.55000      14.80000       0.21968       0.13388       0.00000       0.00000       0.00000  
                                                                                                                               700.00000       1.38502       0.13836      63.00896       2.10850       7.70000       9.25000      13.05000       1.90000       0.21796       0.12992       0.00000       0.00000       0.00000  
9703                              2                 C     600.00000       0.50000       0.50000  2                          
                                                                                                                               300.00000       1.41402       0.13555      62.00000       1.16100      35.90000      35.60000      28.50000       9.55000       0.20984       0.12558       0.00000       0.00000       0.00000  
                                                                                                                               700.00000       1.38177       0.15750      83.86719       1.16100      28.10000      26.25000      20.65000       6.35000       0.21214       0.12650       0.00000       0.00000       0.00000  
9735                              2                 C     600.00000       0.50000       0.50000  2                          
                                                                                                                               300.00000       1.48855       0.12815      31.00000       0.66200      20.55000      42.25000      37.20000       9.60000       0.22067       0.14449       0.00000       0.00000       0.00000  
                                                                                                                               700.00000       1.45630       0.13096      38.01757       0.66200      23.15000      41.20000      35.65000       9.70000       0.21853       0.14237       0.00000       0.00000       0.00000  
9739                              2                 C     400.00000       0.50000       0.50000  2                          
                                                                                                                               300.00000       1.31408       0.08862      61.00000       2.25150      22.10000      35.35000      42.55000      10.05000       0.21983       0.12964       0.00000       0.00000       0.00000  
                                                                                                                               700.00000       1.28183       0.22563     120.19716       2.25150      16.00000      23.00000      31.00000       6.80000       0.22015       0.14196       0.00000       0.00000       0.00000  
9701                              2                 C              null       0.50000       0.50000  2                          
                                                                                                                               300.00000       1.38045       0.12620      44.00000       1.13600      21.55000      37.75000      40.70000       8.75000       0.22061       0.13194       0.00000       0.00000       0.00000  
                                                                                                                               700.00000       1.34820       0.20044      74.84374       1.13600      21.85000      29.40000      33.75000       8.05000       0.21847       0.13959       0.00000       0.00000       0.00000  
9728                              2                 C     600.00000       0.50000       0.50000  3                          
                                                                                                                               300.00000       1.55201       0.13747      27.00000       1.19800      46.10000      36.00000      17.90000      17.50000       0.20471       0.15452       0.00000       0.00000       0.00000  
                                                                                                                               700.00000       1.51976       0.12841      34.53771       1.19800      43.50000      37.30000      19.20000      12.60000       0.20572       0.15190       0.00000       0.00000       0.00000  
9710                              2                 C     600.00000       0.50000       0.50000  2                          
                                                                                                                               300.00000       1.49068       0.13134      32.00000       0.87800      22.20000      38.20000      39.60000      10.20000       0.22006       0.14397       0.00000       0.00000       0.00000  
                                                                                                                               700.00000       1.45843       0.13508      40.43082       0.87800      20.60000      30.80000      28.60000       7.60000       0.21797       0.14121       0.00000       0.00000       0.00000  
9682                              2                 B     400.00000       0.50000       0.50000  2                          
                                                                                                                               300.00000       1.39690       0.12594     102.00000       4.41850      21.70000      41.40000      36.90000       6.45000       0.21690       0.11240       0.00000       0.00000       0.00000  
                                                                                                                               700.00000       1.36465       0.12323     115.54702       4.41850      24.55000      38.65000      36.80000       9.60000       0.21540       0.11032       0.00000       0.00000       0.00000  
9681                              2                 C              null       0.50000       0.50000  2                          
                                                                                                                               300.00000       1.21435       0.10297      43.00000       6.99250      20.50000      47.75000      31.75000       5.50000       0.21431       0.13296       0.00000       0.00000       0.00000  
                                                                                                                               700.00000       1.18210       0.10027      55.71114       6.99250      21.25000      44.50000      34.25000       9.25000       0.21458       0.13002       0.00000       0.00000       0.00000  
7003                              2                 D              null       0.50000       0.50000  2                          
                                                                                                                               300.00000       1.45834       0.10627       0.00000       0.86300      17.40000      31.60000      51.00000       5.80000       0.22736       0.16595       0.00000       0.00000       0.00000  
                                                                                                                               700.00000       1.42609       0.10319       0.00000       0.86300      17.70000      29.90000      52.40000      10.00000       0.22759       0.16457       0.00000       0.00000       0.00000  
9732                              2                 C     600.00000       0.50000       0.50000  1                          
                                                                                                                               300.00000       1.38123       0.11774      47.00000       0.80500       9.25000      14.25000      76.50000      17.05000       0.24712       0.13169       0.00000       0.00000       0.00000  
                                                                                                                               700.00000       1.34898       0.13463      61.24941       0.80500       9.75000      12.05000      63.20000      10.65000       0.23997       0.13173       0.00000       0.00000       0.00000  
9737                              2                 C     400.00000       0.50000       0.50000  2                          
                                                                                                                               300.00000       1.49616       0.13428      27.00000       0.70500      20.10000      38.90000      41.00000      14.30000       0.22209       0.14727       0.00000       0.00000       0.00000  
                                                                                                                               700.00000       1.46391       0.13586      32.55794       0.70500      22.90000      38.30000      38.80000      15.60000       0.21950       0.14572       0.00000       0.00000       0.00000  
9697                              2                 C     400.00000       0.50000       0.50000  2                          
                                                                                                                               300.00000       1.48686       0.12861      35.00000       2.25150      22.10000      35.35000      42.55000      10.05000       0.21983       0.14233       0.00000       0.00000       0.00000  
                                                                                                                               700.00000       1.45461       0.13300      45.10938       2.25150      16.00000      23.00000      31.00000       6.80000       0.22015       0.13881       0.00000       0.00000       0.00000  
9719                              2                 C              null       0.50000       0.50000  1                          
                                                                                                                               300.00000       1.47116       0.13338      31.00000       0.49000      12.30000      12.95000      74.75000       6.60000       0.24294       0.14241       0.00000       0.00000       0.00000  
                                                                                                                               700.00000       1.43891       0.13062      35.85349       0.49000      23.20000      14.10000      62.70000      10.55000       0.22626       0.14135       0.00000       0.00000       0.00000  
9420                              2                 C     600.00000       0.50000       0.50000  2                          
                                                                                                                               300.00000       1.55234       0.14077      26.00000       1.37000      22.20000      37.00000      40.80000      14.70000       0.22000       0.15457       0.00000       0.00000       0.00000  
                                                                                                                               700.00000       1.52009       0.12544      35.85956       1.37000      10.60000      19.10000      20.30000       7.70000       0.22015       0.15149       0.00000       0.00000       0.00000  
9734                              2                 C     600.00000       0.50000       0.50000  2                          
                                                                                                                               300.00000       1.49795       0.13610      27.00000       0.63250      19.95000      44.75000      35.30000       9.15000       0.22052       0.14765       0.00000       0.00000       0.00000  
                                                                                                                               700.00000       1.46570       0.13732      33.12124       0.63250      21.25000      44.05000      34.70000      10.00000       0.21950       0.14560       0.00000       0.00000       0.00000  
9707                              2                 C     400.00000       0.50000       0.50000  3                          
                                                                                                                               300.00000       1.49176       0.13145      31.00000       1.04550      47.75000      32.65000      19.60000      13.55000       0.20420       0.14493       0.00000       0.00000       0.00000  
                                                                                                                               700.00000       1.45951       0.13518      36.36636       1.04550      42.05000      34.85000      23.10000      10.65000       0.20658       0.14326       0.00000       0.00000       0.00000  
9738                              2                 C     600.00000       0.50000       0.50000  2                          
                                                                                                                               300.00000       1.31507       0.10766      55.00000       0.67000      20.10000      41.70000      38.20000      11.50000       0.22126       0.12986       0.00000       0.00000       0.00000  
                                                                                                                               700.00000       1.28282       0.14366      80.13434       0.67000      22.20000      41.10000      36.70000      12.80000       0.21942       0.12850       0.00000       0.00000       0.00000  
9706                              2                 C     400.00000       0.50000       0.50000  3                          
                                                                                                                               300.00000       1.42968       0.13372      76.00000       1.06200      47.60000      32.40000      20.00000      13.50000       0.20427       0.12363       0.00000       0.00000       0.00000  
                                                                                                                               700.00000       1.39743       0.13719      72.05819       1.06200      42.65000      34.35000      23.00000      10.70000       0.20633       0.12542       0.00000       0.00000       0.00000  
9686                              2                 C              null       0.50000       0.50000  3                          
                                                                                                                               300.00000       1.53388       0.13095      29.00000       1.30200      52.40000      26.50000      21.10000      17.20000       0.20264       0.15126       0.00000       0.00000       0.00000  
                                                                                                                               700.00000       1.50163       0.13174      36.10653       1.30200      55.30000      24.90000      19.80000      13.40000       0.20167       0.14884       0.00000       0.00000       0.00000  
7001                              2                 D              null       0.50000       0.50000  2                          
                                                                                                                               300.00000       1.45834       0.10627       0.00000       0.86300      17.40000      31.60000      51.00000       5.80000       0.22736       0.16595       0.00000       0.00000       0.00000  
                                                                                                                               700.00000       1.42609       0.10319       0.00000       0.86300      17.70000      29.90000      52.40000      10.00000       0.22759       0.16457       0.00000       0.00000       0.00000  
9712                              2                 C     400.00000       0.50000       0.50000  2                          
                                                                                                                               300.00000       1.49705       0.13264      30.00000       0.69500      21.75000      39.25000      39.00000       7.50000       0.22035       0.14575       0.00000       0.00000       0.00000  
                                                                                                                               700.00000       1.46480       0.13431      36.37315       0.69500      25.75000      38.50000      35.75000       9.50000       0.21689       0.14398       0.00000       0.00000       0.00000  
