sweep.ops: written by SWAT+ editor v2.0.4 on 2021-11-15 12:53
name                   swp_eff     frac_curb  description
high_eff               0.80000       0.90000  
