time.sim: written by SWAT+ editor v2.0.4 on 2021-11-15 12:52
day_start  yrc_start   day_end   yrc_end      step  
       0      2000        73      2021         0  
