topography.hyd: written by SWAT+ editor v2.0.4 on 2021-11-15 12:52
name                       slp       slp_len       lat_len      dist_cha         depos  
topohru00001           0.24066      10.00000      10.00000     121.00000       0.00000  
topohru00002           0.05291      30.00000      30.00000     121.00000       0.00000  
topohru00003           0.05398      30.00000      30.00000     121.00000       0.00000  
topohru00004           0.17241      10.00000      10.00000     121.00000       0.00000  
topohru00005           0.09759      10.00000      10.00000     121.00000       0.00000  
topohru00006           0.04898      60.00000      60.00000     121.00000       0.00000  
topohru00007           0.05407      30.00000      30.00000     121.00000       0.00000  
topohru00008           0.22739      10.00000      10.00000     121.00000       0.00000  
topohru00009           0.05168      30.00000      30.00000     121.00000       0.00000  
topohru00010           0.18848      10.00000      10.00000     121.00000       0.00000  
topohru00011           0.17545      10.00000      10.00000     121.00000       0.00000  
topohru00012           0.05285      30.00000      30.00000     121.00000       0.00000  
topohru00013           0.05045      30.00000      30.00000     121.00000       0.00000  
topohru00014           0.00878     121.00000     121.00000     121.00000       0.00000  
topohru00015           0.12219      10.00000      10.00000     121.00000       0.00000  
topohru00016           0.31768      10.00000      10.00000     121.00000       0.00000  
topohru00017           0.05142      30.00000      30.00000     121.00000       0.00000  
topohru00018           0.25296      10.00000      10.00000     121.00000       0.00000  
topohru00019           0.12969      10.00000      10.00000     121.00000       0.00000  
topohru00020           0.04777      60.00000      60.00000     121.00000       0.00000  
topohru00021           0.11863      10.00000      10.00000     121.00000       0.00000  
topohru00022           0.04181      60.00000      60.00000     121.00000       0.00000  
topohru00023           0.01116      90.00000      90.00000     121.00000       0.00000  
topohru00024           0.03550      60.00000      60.00000     121.00000       0.00000  
topohru00025           0.01663      90.00000      90.00000     121.00000       0.00000  
topohru00026           0.01139      90.00000      90.00000     121.00000       0.00000  
topohru00027           0.03367      60.00000      60.00000     121.00000       0.00000  
topohru00028           0.36144      10.00000      10.00000     121.00000       0.00000  
topohru00029           0.27324      10.00000      10.00000     121.00000       0.00000  
topohru00030           0.12700      10.00000      10.00000     121.00000       0.00000  
topohru00031           0.05243      30.00000      30.00000     121.00000       0.00000  
topohru00032           0.00663     121.00000     121.00000     121.00000       0.00000  
topohru00033           0.16416      10.00000      10.00000     121.00000       0.00000  
topohru00034           0.01257      90.00000      90.00000     121.00000       0.00000  
topohru00035           0.04349      60.00000      60.00000     121.00000       0.00000  
topohru00036           0.18828      10.00000      10.00000     121.00000       0.00000  
topohru00037           0.06145      30.00000      30.00000     121.00000       0.00000  
topohru00038           0.43441      10.00000      10.00000     121.00000       0.00000  
topohru00039           0.36657      10.00000      10.00000     121.00000       0.00000  
topohru00040           0.18285      10.00000      10.00000     121.00000       0.00000  
topohru00041           0.00141     121.00000     121.00000     121.00000       0.00000  
topohru00042           0.05235      30.00000      30.00000     121.00000       0.00000  
topohru00043           0.37268      10.00000      10.00000     121.00000       0.00000  
topohru00044           0.20573      10.00000      10.00000     121.00000       0.00000  
topohru00045           0.05111      30.00000      30.00000     121.00000       0.00000  
topohru00046           0.00278     121.00000     121.00000     121.00000       0.00000  
topohru00047           0.31970      10.00000      10.00000     121.00000       0.00000  
topohru00048           0.19728      10.00000      10.00000     121.00000       0.00000  
topohru00049           0.05194      30.00000      30.00000     121.00000       0.00000  
topohru00050           0.34961      10.00000      10.00000     121.00000       0.00000  
topohru00051           0.33798      10.00000      10.00000     121.00000       0.00000  
topohru00052           0.31426      10.00000      10.00000     121.00000       0.00000  
topohru00053           0.31808      10.00000      10.00000     121.00000       0.00000  
topohru00054           0.25021      10.00000      10.00000     121.00000       0.00000  
topohru00055           0.05055      30.00000      30.00000     121.00000       0.00000  
topohru00056           0.24530      10.00000      10.00000     121.00000       0.00000  
topohru00057           0.30507      10.00000      10.00000     121.00000       0.00000  
topohru00058           0.27739      10.00000      10.00000     121.00000       0.00000  
topohru00059           0.20087      10.00000      10.00000     121.00000       0.00000  
topohru00060           0.24379      10.00000      10.00000     121.00000       0.00000  
topohru00061           0.26103      10.00000      10.00000     121.00000       0.00000  
topohru00062           0.25847      10.00000      10.00000     121.00000       0.00000  
topohru00063           0.25398      10.00000      10.00000     121.00000       0.00000  
topohru00064           0.13748      10.00000      10.00000     121.00000       0.00000  
topohru00065           0.04696      60.00000      60.00000     121.00000       0.00000  
topohru00066           0.13635      10.00000      10.00000     121.00000       0.00000  
topohru00067           0.05266      30.00000      30.00000     121.00000       0.00000  
topohru00068           0.03757      60.00000      60.00000     121.00000       0.00000  
topohru00069           0.01133      90.00000      90.00000     121.00000       0.00000  
topohru00070           0.24953      10.00000      10.00000     121.00000       0.00000  
topohru00071           0.33600      10.00000      10.00000     121.00000       0.00000  
topohru00072           0.17164      10.00000      10.00000     121.00000       0.00000  
topohru00073           0.05380      30.00000      30.00000     121.00000       0.00000  
topohru00074           0.04845      60.00000      60.00000     121.00000       0.00000  
topohru00075           0.10418      10.00000      10.00000     121.00000       0.00000  
topohru00076           0.04035      60.00000      60.00000     121.00000       0.00000  
topohru00077           0.01149      90.00000      90.00000     121.00000       0.00000  
topohru00078           0.04294      60.00000      60.00000     121.00000       0.00000  
topohru00079           0.01055      90.00000      90.00000     121.00000       0.00000  
topohru00080           0.03115      60.00000      60.00000     121.00000       0.00000  
topohru00081           0.01253      90.00000      90.00000     121.00000       0.00000  
topohru00082           0.11784      10.00000      10.00000     121.00000       0.00000  
topohru00083           0.01188      90.00000      90.00000     121.00000       0.00000  
topohru00084           0.04030      60.00000      60.00000     121.00000       0.00000  
topohru00085           0.03532      60.00000      60.00000     121.00000       0.00000  
topohru00086           0.01199      90.00000      90.00000     121.00000       0.00000  
topohru00087           0.03210      60.00000      60.00000     121.00000       0.00000  
topohru00088           0.01049      90.00000      90.00000     121.00000       0.00000  
topohru00089           0.03341      60.00000      60.00000     121.00000       0.00000  
topohru00090           0.01273      90.00000      90.00000     121.00000       0.00000  
topohru00091           0.03258      60.00000      60.00000     121.00000       0.00000  
topohru00092           0.01272      90.00000      90.00000     121.00000       0.00000  
topohru00093           0.03477      60.00000      60.00000     121.00000       0.00000  
topohru00094           0.01051      90.00000      90.00000     121.00000       0.00000  
topohru00095           0.01354      90.00000      90.00000     121.00000       0.00000  
topohru00096           0.02943      90.00000      90.00000     121.00000       0.00000  
topohru00097           0.01153      90.00000      90.00000     121.00000       0.00000  
topohru00098           0.03089      60.00000      60.00000     121.00000       0.00000  
topohru00099           0.03973      60.00000      60.00000     121.00000       0.00000  
topohru00100           0.01196      90.00000      90.00000     121.00000       0.00000  
topohru00101           0.03296      60.00000      60.00000     121.00000       0.00000  
topohru00102           0.00754     121.00000     121.00000     121.00000       0.00000  
topohru00103           0.00792     121.00000     121.00000     121.00000       0.00000  
topohru00104           0.03672      60.00000      60.00000     121.00000       0.00000  
topohru00105           0.03774      60.00000      60.00000     121.00000       0.00000  
topohru00106           0.01379      90.00000      90.00000     121.00000       0.00000  
topohru00107           0.03331      60.00000      60.00000     121.00000       0.00000  
topohru00108           0.01112      90.00000      90.00000     121.00000       0.00000  
topohru00109           0.27301      10.00000      10.00000     121.00000       0.00000  
topohru00110           0.11682      10.00000      10.00000     121.00000       0.00000  
topohru00111           0.04936      60.00000      60.00000     121.00000       0.00000  
topohru00112           0.03505      60.00000      60.00000     121.00000       0.00000  
topohru00113           0.01138      90.00000      90.00000     121.00000       0.00000  
topohru00114           0.03444      60.00000      60.00000     121.00000       0.00000  
topohru00115           0.01189      90.00000      90.00000     121.00000       0.00000  
topohru00116           0.01294      90.00000      90.00000     121.00000       0.00000  
topohru00117           0.03051      60.00000      60.00000     121.00000       0.00000  
topohru00118           0.03117      60.00000      60.00000     121.00000       0.00000  
topohru00119           0.01253      90.00000      90.00000     121.00000       0.00000  
topohru00120           0.01164      90.00000      90.00000     121.00000       0.00000  
topohru00121           0.02970      90.00000      90.00000     121.00000       0.00000  
topohru00122           0.47923      10.00000      10.00000     121.00000       0.00000  
topohru00123           0.38002      10.00000      10.00000     121.00000       0.00000  
topohru00124           0.39739      10.00000      10.00000     121.00000       0.00000  
topohru00125           0.05314      30.00000      30.00000     121.00000       0.00000  
topohru00126           0.20252      10.00000      10.00000     121.00000       0.00000  
topohru00127           0.16820      10.00000      10.00000     121.00000       0.00000  
topohru00128           0.05155      30.00000      30.00000     121.00000       0.00000  
topohru00129           0.30588      10.00000      10.00000     121.00000       0.00000  
topohru00130           0.26104      10.00000      10.00000     121.00000       0.00000  
topohru00131           0.26319      10.00000      10.00000     121.00000       0.00000  
topohru00132           0.38371      10.00000      10.00000     121.00000       0.00000  
topohru00133           0.14206      10.00000      10.00000     121.00000       0.00000  
topohru00134           0.05376      30.00000      30.00000     121.00000       0.00000  
topohru00135           0.18195      10.00000      10.00000     121.00000       0.00000  
topohru00136           0.05803      30.00000      30.00000     121.00000       0.00000  
topohru00137           0.05297      30.00000      30.00000     121.00000       0.00000  
topohru00138           0.15469      10.00000      10.00000     121.00000       0.00000  
topohru00139           0.33446      10.00000      10.00000     121.00000       0.00000  
topohru00140           0.30995      10.00000      10.00000     121.00000       0.00000  
topohru00141           0.36737      10.00000      10.00000     121.00000       0.00000  
topohru00142           0.19015      10.00000      10.00000     121.00000       0.00000  
topohru00143           0.05286      30.00000      30.00000     121.00000       0.00000  
topohru00144           0.04150      60.00000      60.00000     121.00000       0.00000  
topohru00145           0.01179      90.00000      90.00000     121.00000       0.00000  
topohru00146           0.19588      10.00000      10.00000     121.00000       0.00000  
topohru00147           0.04676      60.00000      60.00000     121.00000       0.00000  
topohru00148           0.30579      10.00000      10.00000     121.00000       0.00000  
topohru00149           0.13790      10.00000      10.00000     121.00000       0.00000  
topohru00150           0.04483      60.00000      60.00000     121.00000       0.00000  
topohru00151           0.04151      60.00000      60.00000     121.00000       0.00000  
topohru00152           0.29488      10.00000      10.00000     121.00000       0.00000  
topohru00153           0.19592      10.00000      10.00000     121.00000       0.00000  
topohru00154           0.18083      10.00000      10.00000     121.00000       0.00000  
topohru00155           0.04658      60.00000      60.00000     121.00000       0.00000  
topohru00156           0.01643      90.00000      90.00000     121.00000       0.00000  
topohru00157           0.09926      10.00000      10.00000     121.00000       0.00000  
topohru00158           0.04651      60.00000      60.00000     121.00000       0.00000  
topohru00159           0.01044      90.00000      90.00000     121.00000       0.00000  
topohru00160           0.17704      10.00000      10.00000     121.00000       0.00000  
topohru00161           0.05050      30.00000      30.00000     121.00000       0.00000  
topohru00162           0.14509      10.00000      10.00000     121.00000       0.00000  
topohru00163           0.01147      90.00000      90.00000     121.00000       0.00000  
topohru00164           0.04124      60.00000      60.00000     121.00000       0.00000  
topohru00165           0.13934      10.00000      10.00000     121.00000       0.00000  
topohru00166           0.05827      30.00000      30.00000     121.00000       0.00000  
topohru00167           0.20782      10.00000      10.00000     121.00000       0.00000  
topohru00168           0.06979      30.00000      30.00000     121.00000       0.00000  
topohru00169           0.21349      10.00000      10.00000     121.00000       0.00000  
topohru00170           0.20935      10.00000      10.00000     121.00000       0.00000  
topohru00171           0.29255      10.00000      10.00000     121.00000       0.00000  
topohru00172           0.12443      10.00000      10.00000     121.00000       0.00000  
topohru00173           0.05238      30.00000      30.00000     121.00000       0.00000  
topohru00174           0.00590     121.00000     121.00000     121.00000       0.00000  
topohru00175           0.03674      60.00000      60.00000     121.00000       0.00000  
topohru00176           0.00918     121.00000     121.00000     121.00000       0.00000  
topohru00177           0.14652      10.00000      10.00000     121.00000       0.00000  
topohru00178           0.40426      10.00000      10.00000     121.00000       0.00000  
topohru00179           0.42996      10.00000      10.00000     121.00000       0.00000  
topohru00180           0.30845      10.00000      10.00000     121.00000       0.00000  
topohru00181           0.32997      10.00000      10.00000     121.00000       0.00000  
topohru00182           0.32224      10.00000      10.00000     121.00000       0.00000  
topohru00183           0.21940      10.00000      10.00000     121.00000       0.00000  
topohru00184           0.04798      60.00000      60.00000     121.00000       0.00000  
topohru00185           0.04016      60.00000      60.00000     121.00000       0.00000  
topohru00186           0.00955     121.00000     121.00000     121.00000       0.00000  
topohru00187           0.01136      90.00000      90.00000     121.00000       0.00000  
topohru00188           0.03597      60.00000      60.00000     121.00000       0.00000  
topohru00189           0.36589      10.00000      10.00000     121.00000       0.00000  
topohru00190           0.03612      60.00000      60.00000     121.00000       0.00000  
topohru00191           0.01209      90.00000      90.00000     121.00000       0.00000  
topohru00192           0.04069      60.00000      60.00000     121.00000       0.00000  
topohru00193           0.01260      90.00000      90.00000     121.00000       0.00000  
topohru00194           0.01101      90.00000      90.00000     121.00000       0.00000  
topohru00195           0.03576      60.00000      60.00000     121.00000       0.00000  
topohru00196           0.03685      60.00000      60.00000     121.00000       0.00000  
topohru00197           0.01132      90.00000      90.00000     121.00000       0.00000  
topohru00198           0.04082      60.00000      60.00000     121.00000       0.00000  
topohru00199           0.01090      90.00000      90.00000     121.00000       0.00000  
topohru00200           0.01155      90.00000      90.00000     121.00000       0.00000  
topohru00201           0.03508      60.00000      60.00000     121.00000       0.00000  
topohru00202           0.03320      60.00000      60.00000     121.00000       0.00000  
topohru00203           0.01806      90.00000      90.00000     121.00000       0.00000  
topohru00204           0.00962     121.00000     121.00000     121.00000       0.00000  
topohru00205           0.04240      60.00000      60.00000     121.00000       0.00000  
topohru00206           0.39012      10.00000      10.00000     121.00000       0.00000  
topohru00207           0.29105      10.00000      10.00000     121.00000       0.00000  
topohru00208           0.45911      10.00000      10.00000     121.00000       0.00000  
topohru00209           0.27117      10.00000      10.00000     121.00000       0.00000  
topohru00210           0.40444      10.00000      10.00000     121.00000       0.00000  
topohru00211           0.26607      10.00000      10.00000     121.00000       0.00000  
topohru00212           0.21382      10.00000      10.00000     121.00000       0.00000  
topohru00213           0.04981      60.00000      60.00000     121.00000       0.00000  
topohru00214           0.18762      10.00000      10.00000     121.00000       0.00000  
topohru00215           0.15530      10.00000      10.00000     121.00000       0.00000  
topohru00216           0.05222      30.00000      30.00000     121.00000       0.00000  
topohru00217           0.01166      90.00000      90.00000     121.00000       0.00000  
topohru00218           0.04365      60.00000      60.00000     121.00000       0.00000  
topohru00219           0.12283      10.00000      10.00000     121.00000       0.00000  
topohru00220           0.01108      90.00000      90.00000     121.00000       0.00000  
topohru00221           0.04343      60.00000      60.00000     121.00000       0.00000  
topohru00222           0.11492      10.00000      10.00000     121.00000       0.00000  
topohru00223           0.04319      60.00000      60.00000     121.00000       0.00000  
topohru00224           0.01103      90.00000      90.00000     121.00000       0.00000  
topohru00225           0.11582      10.00000      10.00000     121.00000       0.00000  
topohru00226           0.05153      30.00000      30.00000     121.00000       0.00000  
topohru00227           0.01948      90.00000      90.00000     121.00000       0.00000  
topohru00228           0.04184      60.00000      60.00000     121.00000       0.00000  
topohru00229           0.01051      90.00000      90.00000     121.00000       0.00000  
topohru00230           0.04110      60.00000      60.00000     121.00000       0.00000  
topohru00231           0.00930     121.00000     121.00000     121.00000       0.00000  
topohru00232           0.03779      60.00000      60.00000     121.00000       0.00000  
topohru00233           0.01202      90.00000      90.00000     121.00000       0.00000  
topohru00234           0.01083      90.00000      90.00000     121.00000       0.00000  
topohru00235           0.03604      60.00000      60.00000     121.00000       0.00000  
topohru00236           0.03133      60.00000      60.00000     121.00000       0.00000  
topohru00237           0.00971     121.00000     121.00000     121.00000       0.00000  
topohru00238           0.04103      60.00000      60.00000     121.00000       0.00000  
topohru00239           0.00972     121.00000     121.00000     121.00000       0.00000  
topohru00240           0.04369      60.00000      60.00000     121.00000       0.00000  
topohru00241           0.00978     121.00000     121.00000     121.00000       0.00000  
topohru00242           0.04330      60.00000      60.00000     121.00000       0.00000  
topohru00243           0.01488      90.00000      90.00000     121.00000       0.00000  
topohru00244           0.05401      30.00000      30.00000     121.00000       0.00000  
topohru00245           0.04065      60.00000      60.00000     121.00000       0.00000  
topohru00246           0.00786     121.00000     121.00000     121.00000       0.00000  
topohru00247           0.04354      60.00000      60.00000     121.00000       0.00000  
topohru00248           0.01853      90.00000      90.00000     121.00000       0.00000  
topohru00249           0.03966      60.00000      60.00000     121.00000       0.00000  
topohru00250           0.01298      90.00000      90.00000     121.00000       0.00000  
topohru00251           0.05274      30.00000      30.00000     121.00000       0.00000  
topohru00252           0.00487     121.00000     121.00000     121.00000       0.00000  
topohru00253           0.03031      60.00000      60.00000     121.00000       0.00000  
topohru00254           0.00459     121.00000     121.00000     121.00000       0.00000  
topohru00255           0.13796      10.00000      10.00000     121.00000       0.00000  
topohru00256           0.04490      60.00000      60.00000     121.00000       0.00000  
topohru00257           0.01051      90.00000      90.00000     121.00000       0.00000  
topohru00258           0.10958      10.00000      10.00000     121.00000       0.00000  
topohru00259           0.04962      60.00000      60.00000     121.00000       0.00000  
topohru00260           0.00960     121.00000     121.00000     121.00000       0.00000  
topohru00261           0.15369      10.00000      10.00000     121.00000       0.00000  
topohru00262           0.05594      30.00000      30.00000     121.00000       0.00000  
topohru00263           0.12161      10.00000      10.00000     121.00000       0.00000  
topohru00264           0.00841     121.00000     121.00000     121.00000       0.00000  
topohru00265           0.04920      60.00000      60.00000     121.00000       0.00000  
topohru00266           0.09527      10.00000      10.00000     121.00000       0.00000  
topohru00267           0.05065      30.00000      30.00000     121.00000       0.00000  
topohru00268           0.00394     121.00000     121.00000     121.00000       0.00000  
topohru00269           0.04041      60.00000      60.00000     121.00000       0.00000  
topohru00270           0.00999     121.00000     121.00000     121.00000       0.00000  
topohru00271           0.00859     121.00000     121.00000     121.00000       0.00000  
topohru00272           0.04368      60.00000      60.00000     121.00000       0.00000  
topohru00273           0.02972      90.00000      90.00000     121.00000       0.00000  
topohru00274           0.01136      90.00000      90.00000     121.00000       0.00000  
topohru00275           0.03927      60.00000      60.00000     121.00000       0.00000  
topohru00276           0.01322      90.00000      90.00000     121.00000       0.00000  
topohru00277           0.04199      60.00000      60.00000     121.00000       0.00000  
topohru00278           0.01093      90.00000      90.00000     121.00000       0.00000  
topohru00279           0.12025      10.00000      10.00000     121.00000       0.00000  
topohru00280           0.05296      30.00000      30.00000     121.00000       0.00000  
topohru00281           0.05409      30.00000      30.00000     121.00000       0.00000  
topohru00282           0.15458      10.00000      10.00000     121.00000       0.00000  
topohru00283           0.03624      60.00000      60.00000     121.00000       0.00000  
topohru00284           0.01257      90.00000      90.00000     121.00000       0.00000  
topohru00285           0.03863      60.00000      60.00000     121.00000       0.00000  
topohru00286           0.01240      90.00000      90.00000     121.00000       0.00000  
topohru00287           0.04528      60.00000      60.00000     121.00000       0.00000  
topohru00288           0.01099      90.00000      90.00000     121.00000       0.00000  
topohru00289           0.04125      60.00000      60.00000     121.00000       0.00000  
topohru00290           0.01156      90.00000      90.00000     121.00000       0.00000  
topohru00291           0.01272      90.00000      90.00000     121.00000       0.00000  
topohru00292           0.03367      60.00000      60.00000     121.00000       0.00000  
topohru00293           0.03808      60.00000      60.00000     121.00000       0.00000  
topohru00294           0.01174      90.00000      90.00000     121.00000       0.00000  
topohru00295           0.01415      90.00000      90.00000     121.00000       0.00000  
topohru00296           0.03138      60.00000      60.00000     121.00000       0.00000  
topohru00297           0.04063      60.00000      60.00000     121.00000       0.00000  
topohru00298           0.00738     121.00000     121.00000     121.00000       0.00000  
topohru00299           0.04185      60.00000      60.00000     121.00000       0.00000  
topohru00300           0.01123      90.00000      90.00000     121.00000       0.00000  
topohru00301           0.01021      90.00000      90.00000     121.00000       0.00000  
topohru00302           0.04347      60.00000      60.00000     121.00000       0.00000  
topohru00303           0.01221      90.00000      90.00000     121.00000       0.00000  
topohru00304           0.04080      60.00000      60.00000     121.00000       0.00000  
topohru00305           0.03795      60.00000      60.00000     121.00000       0.00000  
topohru00306           0.01237      90.00000      90.00000     121.00000       0.00000  
topohru00307           0.04283      60.00000      60.00000     121.00000       0.00000  
topohru00308           0.01305      90.00000      90.00000     121.00000       0.00000  
topohru00309           0.04279      60.00000      60.00000     121.00000       0.00000  
topohru00310           0.01041      90.00000      90.00000     121.00000       0.00000  
topohru00311           0.04210      60.00000      60.00000     121.00000       0.00000  
topohru00312           0.01015      90.00000      90.00000     121.00000       0.00000  
topohru00313           0.34222      10.00000      10.00000     121.00000       0.00000  
topohru00314           0.21403      10.00000      10.00000     121.00000       0.00000  
topohru00315           0.04646      60.00000      60.00000     121.00000       0.00000  
topohru00316           0.03577      60.00000      60.00000     121.00000       0.00000  
topohru00317           0.01162      90.00000      90.00000     121.00000       0.00000  
topohru00318           0.04228      60.00000      60.00000     121.00000       0.00000  
topohru00319           0.01198      90.00000      90.00000     121.00000       0.00000  
topohru00320           0.01127      90.00000      90.00000     121.00000       0.00000  
topohru00321           0.03500      60.00000      60.00000     121.00000       0.00000  
topohru00322           0.04409      60.00000      60.00000     121.00000       0.00000  
topohru00323           0.01208      90.00000      90.00000     121.00000       0.00000  
topohru00324           0.35037      10.00000      10.00000     121.00000       0.00000  
topohru00325           0.13970      10.00000      10.00000     121.00000       0.00000  
topohru00326           0.04640      60.00000      60.00000     121.00000       0.00000  
topohru00327           0.03907      60.00000      60.00000     121.00000       0.00000  
topohru00328           0.01225      90.00000      90.00000     121.00000       0.00000  
topohru00329           0.04150      60.00000      60.00000     121.00000       0.00000  
topohru00330           0.00955     121.00000     121.00000     121.00000       0.00000  
topohru00331           0.27041      10.00000      10.00000     121.00000       0.00000  
topohru00332           0.22525      10.00000      10.00000     121.00000       0.00000  
topohru00333           0.24274      10.00000      10.00000     121.00000       0.00000  
topohru00334           0.23750      10.00000      10.00000     121.00000       0.00000  
topohru00335           0.20826      10.00000      10.00000     121.00000       0.00000  