exco.exc: written by SWAT+ editor v2.0.4 on 2021-11-11 16:22
name                            om              pest              path              hmet              salt  
pt0008                      pt0008              null              null              null              null  
pt0010                      pt0010              null              null              null              null  
pt0012                      pt0012              null              null              null              null  
pt0014                      pt0014              null              null              null              null  
pt0016                      pt0016              null              null              null              null  
pt0018                      pt0018              null              null              null              null  
pt0020                      pt0020              null              null              null              null  
pt0022                      pt0022              null              null              null              null  
pt0024                      pt0024              null              null              null              null  
pt0026                      pt0026              null              null              null              null  
pt0028                      pt0028              null              null              null              null  
pt0030                      pt0030              null              null              null              null  
pt0032                      pt0032              null              null              null              null  
pt0034                      pt0034              null              null              null              null  
pt0036                      pt0036              null              null              null              null  
pt0038                      pt0038              null              null              null              null  
pt0040                      pt0040              null              null              null              null  
pt0042                      pt0042              null              null              null              null  
pt0044                      pt0044              null              null              null              null  
pt0046                      pt0046              null              null              null              null  
pt0048                      pt0048              null              null              null              null  
pt0050                      pt0050              null              null              null              null  
pt0052                      pt0052              null              null              null              null  
pt0054                      pt0054              null              null              null              null  
pt0056                      pt0056              null              null              null              null  
pt0058                      pt0058              null              null              null              null  
pt0060                      pt0060              null              null              null              null  
pt0062                      pt0062              null              null              null              null  
pt0064                      pt0064              null              null              null              null  
pt0066                      pt0066              null              null              null              null  
pt0068                      pt0068              null              null              null              null  
pt0070                      pt0070              null              null              null              null  
pt0072                      pt0072              null              null              null              null  
pt0074                      pt0074              null              null              null              null  
pt0076                      pt0076              null              null              null              null  
pt0078                      pt0078              null              null              null              null  
pt0080                      pt0080              null              null              null              null  
pt0082                      pt0082              null              null              null              null  
pt0084                      pt0084              null              null              null              null  
pt0086                      pt0086              null              null              null              null  
pt0088                      pt0088              null              null              null              null  
pt0090                      pt0090              null              null              null              null  
pt0092                      pt0092              null              null              null              null  
pt0094                      pt0094              null              null              null              null  
pt0096                      pt0096              null              null              null              null  
pt0098                      pt0098              null              null              null              null  
pt0100                      pt0100              null              null              null              null  
pt0102                      pt0102              null              null              null              null  
pt0104                      pt0104              null              null              null              null  
pt0106                      pt0106              null              null              null              null  
pt0108                      pt0108              null              null              null              null  
pt0110                      pt0110              null              null              null              null  
pt0112                      pt0112              null              null              null              null  
pt0114                      pt0114              null              null              null              null  
pt0116                      pt0116              null              null              null              null  
pt0118                      pt0118              null              null              null              null  
pt0120                      pt0120              null              null              null              null  
pt0122                      pt0122              null              null              null              null  
pt0124                      pt0124              null              null              null              null  
pt0126                      pt0126              null              null              null              null  
pt0128                      pt0128              null              null              null              null  
pt0130                      pt0130              null              null              null              null  
pt0132                      pt0132              null              null              null              null  
pt0134                      pt0134              null              null              null              null  
pt0136                      pt0136              null              null              null              null  
pt0138                      pt0138              null              null              null              null  
pt0140                      pt0140              null              null              null              null  
pt0142                      pt0142              null              null              null              null  
pt0144                      pt0144              null              null              null              null  
pt0146                      pt0146              null              null              null              null  
pt0148                      pt0148              null              null              null              null  
pt0150                      pt0150              null              null              null              null  
pt0152                      pt0152              null              null              null              null  
pt0154                      pt0154              null              null              null              null  
pt0156                      pt0156              null              null              null              null  
pt0158                      pt0158              null              null              null              null  
pt0160                      pt0160              null              null              null              null  
pt0162                      pt0162              null              null              null              null  
pt0164                      pt0164              null              null              null              null  
pt0166                      pt0166              null              null              null              null  
pt0168                      pt0168              null              null              null              null  
pt0170                      pt0170              null              null              null              null  
pt0172                      pt0172              null              null              null              null  
pt0174                      pt0174              null              null              null              null  
pt0176                      pt0176              null              null              null              null  
pt0178                      pt0178              null              null              null              null  
pt0180                      pt0180              null              null              null              null  
pt0182                      pt0182              null              null              null              null  
pt0184                      pt0184              null              null              null              null  
pt0186                      pt0186              null              null              null              null  
pt0188                      pt0188              null              null              null              null  
pt0190                      pt0190              null              null              null              null  
pt0192                      pt0192              null              null              null              null  
pt0194                      pt0194              null              null              null              null  
pt0196                      pt0196              null              null              null              null  
pt0198                      pt0198              null              null              null              null  
pt0200                      pt0200              null              null              null              null  
pt0202                      pt0202              null              null              null              null  
pt0204                      pt0204              null              null              null              null  
pt0206                      pt0206              null              null              null              null  
pt0208                      pt0208              null              null              null              null  
pt0210                      pt0210              null              null              null              null  
pt0212                      pt0212              null              null              null              null  
pt0214                      pt0214              null              null              null              null  
pt0216                      pt0216              null              null              null              null  
pt0218                      pt0218              null              null              null              null  
pt0220                      pt0220              null              null              null              null  
pt0222                      pt0222              null              null              null              null  
pt0224                      pt0224              null              null              null              null  
pt0226                      pt0226              null              null              null              null  
pt0228                      pt0228              null              null              null              null  
pt0230                      pt0230              null              null              null              null  
pt0232                      pt0232              null              null              null              null  
pt0234                      pt0234              null              null              null              null  
pt0236                      pt0236              null              null              null              null  
pt0238                      pt0238              null              null              null              null  
pt0240                      pt0240              null              null              null              null  
pt0242                      pt0242              null              null              null              null  
pt0244                      pt0244              null              null              null              null  
pt0246                      pt0246              null              null              null              null  
pt0248                      pt0248              null              null              null              null  
pt0250                      pt0250              null              null              null              null  
pt0252                      pt0252              null              null              null              null  
pt0254                      pt0254              null              null              null              null  
pt0256                      pt0256              null              null              null              null  
pt0258                      pt0258              null              null              null              null  
pt0260                      pt0260              null              null              null              null  
pt0262                      pt0262              null              null              null              null  
pt0264                      pt0264              null              null              null              null  
pt0266                      pt0266              null              null              null              null  
pt0268                      pt0268              null              null              null              null  
pt0270                      pt0270              null              null              null              null  
pt0272                      pt0272              null              null              null              null  
pt0274                      pt0274              null              null              null              null  
pt0276                      pt0276              null              null              null              null  
pt0278                      pt0278              null              null              null              null  
pt0280                      pt0280              null              null              null              null  
pt0282                      pt0282              null              null              null              null  
pt0284                      pt0284              null              null              null              null  
pt0286                      pt0286              null              null              null              null  
pt0288                      pt0288              null              null              null              null  
pt0290                      pt0290              null              null              null              null  
pt0292                      pt0292              null              null              null              null  
pt0294                      pt0294              null              null              null              null  
pt0296                      pt0296              null              null              null              null  
pt0298                      pt0298              null              null              null              null  
pt0300                      pt0300              null              null              null              null  
pt0302                      pt0302              null              null              null              null  
pt0304                      pt0304              null              null              null              null  
pt0306                      pt0306              null              null              null              null  
pt0308                      pt0308              null              null              null              null  
pt0310                      pt0310              null              null              null              null  
pt0312                      pt0312              null              null              null              null  
pt0314                      pt0314              null              null              null              null  
pt0316                      pt0316              null              null              null              null  
pt0318                      pt0318              null              null              null              null  
pt0320                      pt0320              null              null              null              null  
pt0322                      pt0322              null              null              null              null  
pt0324                      pt0324              null              null              null              null  
pt0326                      pt0326              null              null              null              null  
pt0328                      pt0328              null              null              null              null  
pt0330                      pt0330              null              null              null              null  
pt0332                      pt0332              null              null              null              null  
pt0334                      pt0334              null              null              null              null  
pt0336                      pt0336              null              null              null              null  
pt0338                      pt0338              null              null              null              null  
pt0340                      pt0340              null              null              null              null  
pt0342                      pt0342              null              null              null              null  
pt0344                      pt0344              null              null              null              null  
pt0346                      pt0346              null              null              null              null  
pt0348                      pt0348              null              null              null              null  
pt0350                      pt0350              null              null              null              null  
pt0352                      pt0352              null              null              null              null  
pt0354                      pt0354              null              null              null              null  
pt0356                      pt0356              null              null              null              null  
pt0358                      pt0358              null              null              null              null  
pt0360                      pt0360              null              null              null              null  
pt0362                      pt0362              null              null              null              null  
pt0364                      pt0364              null              null              null              null  
pt0366                      pt0366              null              null              null              null  
pt0368                      pt0368              null              null              null              null  
pt0370                      pt0370              null              null              null              null  
pt0372                      pt0372              null              null              null              null  
pt0374                      pt0374              null              null              null              null  
pt0376                      pt0376              null              null              null              null  
pt0378                      pt0378              null              null              null              null  
pt0380                      pt0380              null              null              null              null  
pt0382                      pt0382              null              null              null              null  
pt0384                      pt0384              null              null              null              null  
pt0386                      pt0386              null              null              null              null  
pt0388                      pt0388              null              null              null              null  
pt0390                      pt0390              null              null              null              null  
pt0392                      pt0392              null              null              null              null  
pt0394                      pt0394              null              null              null              null  
pt0396                      pt0396              null              null              null              null  
pt0398                      pt0398              null              null              null              null  
pt0400                      pt0400              null              null              null              null  
pt0402                      pt0402              null              null              null              null  
pt0404                      pt0404              null              null              null              null  
pt0406                      pt0406              null              null              null              null  
pt0408                      pt0408              null              null              null              null  
pt0410                      pt0410              null              null              null              null  
pt0412                      pt0412              null              null              null              null  
pt0414                      pt0414              null              null              null              null  
pt0416                      pt0416              null              null              null              null  
pt0418                      pt0418              null              null              null              null  
pt0420                      pt0420              null              null              null              null  
pt0422                      pt0422              null              null              null              null  
pt0424                      pt0424              null              null              null              null  
pt0426                      pt0426              null              null              null              null  
pt0428                      pt0428              null              null              null              null  
pt0430                      pt0430              null              null              null              null  
pt0432                      pt0432              null              null              null              null  
pt0434                      pt0434              null              null              null              null  
pt0436                      pt0436              null              null              null              null  
pt0438                      pt0438              null              null              null              null  
pt0440                      pt0440              null              null              null              null  
pt0442                      pt0442              null              null              null              null  
pt0444                      pt0444              null              null              null              null  
pt0446                      pt0446              null              null              null              null  
pt0448                      pt0448              null              null              null              null  
pt0450                      pt0450              null              null              null              null  
pt0452                      pt0452              null              null              null              null  
pt0454                      pt0454              null              null              null              null  
pt0456                      pt0456              null              null              null              null  
pt0458                      pt0458              null              null              null              null  
pt0460                      pt0460              null              null              null              null  
pt0462                      pt0462              null              null              null              null  
pt0464                      pt0464              null              null              null              null  
pt0466                      pt0466              null              null              null              null  
pt0468                      pt0468              null              null              null              null  
pt0470                      pt0470              null              null              null              null  
pt0472                      pt0472              null              null              null              null  
pt0474                      pt0474              null              null              null              null  
pt0476                      pt0476              null              null              null              null  
pt0478                      pt0478              null              null              null              null  
pt0480                      pt0480              null              null              null              null  
pt0482                      pt0482              null              null              null              null  
pt0484                      pt0484              null              null              null              null  
pt0486                      pt0486              null              null              null              null  
pt0488                      pt0488              null              null              null              null  
pt0490                      pt0490              null              null              null              null  
pt0492                      pt0492              null              null              null              null  
pt0494                      pt0494              null              null              null              null  
pt0496                      pt0496              null              null              null              null  
pt0498                      pt0498              null              null              null              null  
pt0500                      pt0500              null              null              null              null  
pt0502                      pt0502              null              null              null              null  
pt0504                      pt0504              null              null              null              null  
pt0506                      pt0506              null              null              null              null  
pt0508                      pt0508              null              null              null              null  
pt0510                      pt0510              null              null              null              null  
pt0512                      pt0512              null              null              null              null  
pt0514                      pt0514              null              null              null              null  
pt0516                      pt0516              null              null              null              null  
pt0518                      pt0518              null              null              null              null  
pt0520                      pt0520              null              null              null              null  
pt0522                      pt0522              null              null              null              null  
pt0524                      pt0524              null              null              null              null  
pt0526                      pt0526              null              null              null              null  
pt0528                      pt0528              null              null              null              null  
pt0530                      pt0530              null              null              null              null  
pt0532                      pt0532              null              null              null              null  
pt0534                      pt0534              null              null              null              null  
pt0536                      pt0536              null              null              null              null  
pt0538                      pt0538              null              null              null              null  
pt0540                      pt0540              null              null              null              null  
pt0542                      pt0542              null              null              null              null  
pt0544                      pt0544              null              null              null              null  
pt0546                      pt0546              null              null              null              null  
pt0548                      pt0548              null              null              null              null  
pt0550                      pt0550              null              null              null              null  
pt0552                      pt0552              null              null              null              null  