hru.con: written by SWAT+ editor v2.0.4 on 2021-11-11 16:22
      id  name                gis_id          area           lat           lon          elev       hru               wst       cst      ovfl      rule   out_tot  
       1  hru0001                  1     924.14354      40.88173       0.68225     278.25036         1       s40873n716e         0         0         0         0  
       2  hru0002                  2     154.91811      40.88381       0.68238     249.83550         2       s40873n716e         0         0         0         0  
       3  hru0003                  3      10.14045      40.89180       0.70509     182.93750         3       s40873n716e         0         0         0         0  
       4  hru0004                  4      39.92801      40.87869       0.69297     252.01587         4       s40873n716e         0         0         0         0  
       5  hru0005                  5      25.09321      40.88616       0.72005     130.30769         5       s40873n716e         0         0         0         0  
       6  hru0006                  6      78.49671      40.88901       0.72102     121.55738         6       s40873n716e         0         0         0         0  
       7  hru0007                  7      59.95480      40.89128       0.68868     234.37113         7       s40873n716e         0         0         0         0  
       8  hru0008                  8     282.46744      40.88726       0.69393     239.21007         8       s40873n716e         0         0         0         0  
       9  hru0009                  9      53.58797      40.88126       0.74487      99.36471         9       s40873n716e         0         0         0         0  
      10  hru0010                 10     197.32983      40.87903       0.74114     140.94888        10       s40873n716e         0         0         0         0  
      11  hru0011                 11     333.34913      40.88500       0.70320     196.94847        11       s40873n716e         0         0         0         0  
      12  hru0012                 12     125.32401      40.88706       0.70799     167.12183        12       s40873n716e         0         0         0         0  
      13  hru0013                 13     474.21163      40.88335       0.74691      85.37257        13       s40909n764e         0         0         0         0  
      14  hru0014                 14     141.57289      40.88357       0.75078      70.93089        14       s40909n764e         0         0         0         0  
      15  hru0015                 15     383.28270      40.88093       0.74427     107.76276        15       s40873n716e         0         0         0         0  
      16  hru0016                 16    1910.92143      40.98214       0.73247     397.85257        16       s41043n740e         0         0         0         0  
      17  hru0017                 17     349.26911      40.97546       0.72584     293.87873        17       s41043n740e         0         0         0         0  
      18  hru0018                 18    2081.27899      40.97883       0.72946     337.58328        18       s41043n740e         0         0         0         0  
      19  hru0019                 19     292.73536      40.92038       0.72260     168.40881        19       s40909n764e         0         0         0         0  
      20  hru0020                 20     453.52501      40.91820       0.72533     145.11096        20       s40909n764e         0         0         0         0  
      21  hru0021                 21     239.56814      40.90693       0.75839      93.18075        21       s40909n764e         0         0         0         0  
      22  hru0022                 22     603.41928      40.90734       0.75167      93.43802        22       s40909n764e         0         0         0         0  
      23  hru0023                 23     308.17685      40.90398       0.75514      84.77555        23       s40909n764e         0         0         0         0  
      24  hru0024                 24      29.24306      40.92510       0.73640     135.61538        24       s40909n764e         0         0         0         0  
      25  hru0025                 25       5.62367      40.92516       0.73624     135.10000        25       s40909n764e         0         0         0         0  
      26  hru0026                 26      12.26981      40.91996       0.74120     115.40000        26       s40909n764e         0         0         0         0  
      27  hru0027                 27      34.96897      40.91975       0.74080     117.82456        27       s40909n764e         0         0         0         0  
      28  hru0028                 28    2465.77305      40.97785       0.78766     427.46636        28       s40909n764e         0         0         0         0  
      29  hru0029                 29    2314.21822      40.97496       0.77074     350.71079        29       s40909n764e         0         0         0         0  
      30  hru0030                 30      79.98727      40.95305       0.74732     192.58647        30       s40909n764e         0         0         0         0  
      31  hru0031                 31      64.95207      40.95254       0.74027     195.75000        31       s40909n764e         0         0         0         0  
      32  hru0032                 32      28.26618      40.95445       0.74201     188.14894        32       s40909n764e         0         0         0         0  
      33  hru0033                 33     116.67316      40.92075       0.77588     106.21649        33       s40909n764e         0         0         0         0  
      34  hru0034                 34      53.52532      40.91369       0.78739      77.86517        34       s40909n764e         0         0         0         0  
      35  hru0035                 35     124.49147      40.91653       0.78303      90.37198        35       s40909n764e         0         0         0         0  
      36  hru0036                 36       3.30774      40.93120       0.76474     145.60000        36       s40909n764e         0         0         0         0  
      37  hru0037                 37       3.30774      40.93057       0.76579     144.00000        37       s40909n764e         0         0         0         0  
      38  hru0038                 38    1616.69874      41.05327       0.86307     432.87907        38       s41151n824e         0         0         0         0  
      39  hru0039                 39     367.11816      41.05710       0.87161     385.74074        39       s41151n824e         0         0         0         0  
      40  hru0040                 40     105.13712      41.04407       0.85535     326.56831        40       s41151n824e         0         0         0         0  
      41  hru0041                 41      24.70435      41.04568       0.85849     275.60465        41       s41151n824e         0         0         0         0  
      42  hru0042                 42      29.87503      41.04251       0.85418     304.75000        42       s41151n824e         0         0         0         0  
      43  hru0043                 43    2908.42411      41.02467       0.84555     389.85797        43       s41043n740e         0         0         0         0  
      44  hru0044                 44     256.16437      41.02407       0.84166     321.67718        44       s41043n740e         0         0         0         0  
      45  hru0045                 45      62.79758      41.02211       0.86294     232.61386        45       s41043n740e         0         0         0         0  
      46  hru0046                 46      59.68878      41.02023       0.84544     253.07292        46       s41043n740e         0         0         0         0  
      47  hru0047                 47     821.31578      41.01704       0.83294     381.98230        47       s41043n740e         0         0         0         0  
      48  hru0048                 48     200.45306      41.01991       0.85230     270.46959        48       s41043n740e         0         0         0         0  
      49  hru0049                 49      56.20812      41.02306       0.84096     265.57831        49       s41043n740e         0         0         0         0  
      50  hru0050                 50     882.29623      41.14118       0.91008     470.43750        50       s41135n960e         0         0         0         0  
      51  hru0051                 51     729.02812      41.15784       0.91524     456.00535        51       s41135n960e         0         0         0         0  
      52  hru0052                 52     200.33922      41.15426       0.92052     412.35952        52       s41135n960e         0         0         0         0  
      53  hru0053                 53      85.53165      41.15692       0.93699     405.40288        53       s41135n960e         0         0         0         0  
      54  hru0054                 54      51.72081      41.14702       0.92425     307.57647        54       s41135n960e         0         0         0         0  
      55  hru0055                 55       9.12720      41.14539       0.92475     271.93333        55       s41135n960e         0         0         0         0  
      56  hru0056                 56      25.83170      41.14623       0.93677     284.83333        56       s41135n960e         0         0         0         0  
      57  hru0057                 57     219.03611      41.14772       0.95556     357.22287        57       s41135n960e         0         0         0         0  
      58  hru0058                 58     383.02036      41.14584       0.94816     346.20074        58       s41135n960e         0         0         0         0  
      59  hru0059                 59       8.19921      41.13596       0.94205     358.07692        59       s41135n960e         0         0         0         0  
      60  hru0060                 60      53.88054      41.13039       0.93235     410.86364        60       s41135n960e         0         0         0         0  
      61  hru0061                 61      62.66541      41.14517       0.94904     300.03333        61       s41135n960e         0         0         0         0  
      62  hru0062                 62      14.05579      41.14446       0.94115     277.50000        62       s41135n960e         0         0         0         0  
      63  hru0063                 63     332.31119      41.11240       0.92623     332.71586        63       s41135n960e         0         0         0         0  
      64  hru0064                 64      45.25892      41.08360       0.95249     139.34848        64       s41123n969e         0         0         0         0  
      65  hru0065                 65      39.08724      41.08271       0.95029     143.71930        65       s41123n969e         0         0         0         0  
      66  hru0066                 66     428.88601      41.12034       0.95813     203.98122        66       s41123n969e         0         0         0         0  
      67  hru0067                 67     545.67188      41.11320       0.96041     166.03075        67       s41123n969e         0         0         0         0  
      68  hru0068                 68     404.47779      41.09212       0.97164     105.49357        68       s41123n969e         0         0         0         0  
      69  hru0069                 69     146.96460      41.09430       0.97761      97.37168        69       s41123n969e         0         0         0         0  
      70  hru0070                 70     314.38162      41.11972       0.95001     263.96903        70       s41135n960e         0         0         0         0  
      71  hru0071                 71     126.10132      41.11916       0.92734     389.36735        71       s41135n960e         0         0         0         0  
      72  hru0072                 72      81.97202      41.11045       0.93025     277.39850        72       s41135n960e         0         0         0         0  
      73  hru0073                 73      19.72259      41.10972       0.93188     253.53125        73       s41135n960e         0         0         0         0  
      74  hru0074                 74     126.47349      41.10502       0.95264     162.72821        74       s41123n969e         0         0         0         0  
      75  hru0075                 75      46.69790      41.10862       0.94481     198.29167        75       s41123n969e         0         0         0         0  
      76  hru0076                 76     101.54995      41.09523       0.96770     105.84431        76       s41123n969e         0         0         0         0  
      77  hru0077                 77      42.56585      41.09583       0.97364      98.72857        77       s41123n969e         0         0         0         0  
      78  hru0078                 78      58.40420      41.11273       0.97339     128.15217        78       s41123n969e         0         0         0         0  
      79  hru0079                 79      17.14036      41.11163       0.97389     122.92593        79       s41123n969e         0         0         0         0  
      80  hru0080                 80     207.71472      41.08668       0.98391      74.78992        80       s41123n969e         0         0         0         0  
      81  hru0081                 81     260.66160      41.08526       0.98327      71.69420        81       s41123n969e         0         0         0         0  
      82  hru0082                 82      17.43336      41.10876       0.96414     139.70000        82       s41123n969e         0         0         0         0  
      83  hru0083                 83      16.27114      41.10822       0.96793     121.32143        83       s41123n969e         0         0         0         0  
      84  hru0084                 84      42.42118      41.10901       0.96688     125.83562        84       s41123n969e         0         0         0         0  
      85  hru0085                 85      22.66337      41.08228       0.99072      64.41026        85       s41123n969e         0         0         0         0  
      86  hru0086                 86      19.17670      41.08024       0.98772      61.45455        86       s41123n969e         0         0         0         0  
      87  hru0087                 87     193.16617      41.10267       0.99638      98.42183        87       s41123n969e         0         0         0         0  
      88  hru0088                 88     127.63782      41.10211       0.99732      95.75000        88       s41123n969e         0         0         0         0  
      89  hru0089                 89     118.63656      41.08330       1.00414      58.33180        89       s41123n969e         0         0         0         0  
      90  hru0090                 90     145.97218      41.08235       1.00405      55.60300        90       s41123n969e         0         0         0         0  
      91  hru0091                 91      33.00342      41.08885       1.00522      67.48333        91       s41123n969e         0         0         0         0  
      92  hru0092                 92      34.10354      41.08368       1.00789      55.27419        92       s41123n969e         0         0         0         0  
      93  hru0093                 93      33.28069      41.07769       1.00449      47.73770        93       s41123n969e         0         0         0         0  
      94  hru0094                 94      22.91457      41.07798       1.00514      48.47619        94       s41123n969e         0         0         0         0  
      95  hru0095                 95      31.65893      41.06147       1.01483      20.32759        95      s41081n1066e         0         0         0         0  
      96  hru0096                 96      39.84659      41.06225       1.01524      20.36986        96      s41081n1066e         0         0         0         0  
      97  hru0097                 97       7.41285      41.06791       1.01402      28.92308        97      s41081n1066e         0         0         0         0  
      98  hru0098                 98      11.40439      41.06804       1.01362      28.20000        98      s41081n1066e         0         0         0         0  
      99  hru0099                 99      18.27961      41.05752       1.02011      13.08824        99      s41081n1066e         0         0         0         0  
     100  hru0100                100      10.21507      41.05833       1.01973      13.57895       100      s41081n1066e         0         0         0         0  
     101  hru0101                101       8.06453      41.05476       1.01807       8.86667       101      s41081n1066e         0         0         0         0  
     102  hru0102                102       5.37635      41.05440       1.01917       6.30000       102      s41081n1066e         0         0         0         0  
     103  hru0103                103     143.32036      41.15034       0.97271     371.58182       103       s41135n960e         0         0         0         0  
     104  hru0104                104      93.50210      41.14283       0.98333     246.26027       104       s41154n998e         0         0         0         0  
     105  hru0105                105     332.38077      41.13504       0.98913     189.84200       105       s41154n998e         0         0         0         0  
     106  hru0106                106     309.56335      41.11751       1.00573     124.85283       106      s41137n1024e         0         0         0         0  
     107  hru0107                107     150.69310      41.11506       1.00721     117.30620       107      s41137n1024e         0         0         0         0  
     108  hru0108                108     294.54911      41.10014       1.01951      86.17920       108      s41137n1024e         0         0         0         0  
     109  hru0109                109     271.74111      41.09401       1.02331      70.96163       109      s41137n1024e         0         0         0         0  
     110  hru0110                110      95.54691      41.10273       1.01961      85.08537       110      s41137n1024e         0         0         0         0  
     111  hru0111                111      91.46869      41.10319       1.01757      87.70064       111      s41137n1024e         0         0         0         0  
     112  hru0112                112      48.35606      41.08917       1.02892      60.14458       112      s41081n1066e         0         0         0         0  
     113  hru0113                113      68.16456      41.08538       1.02779      53.13675       113      s41081n1066e         0         0         0         0  
     114  hru0114                114      57.67771      41.07754       1.02684      39.57576       114      s41081n1066e         0         0         0         0  
     115  hru0115                115      27.96495      41.07971       1.02609      44.12500       115      s41081n1066e         0         0         0         0  
     116  hru0116                116     224.57782      41.22193       0.96445     613.51821       116       s41250n914e         0         0         0         0  
     117  hru0117                117     145.79922      41.22074       0.95595     589.82063       117       s41250n914e         0         0         0         0  
     118  hru0118                118     546.15916      41.20807       0.94735     611.57631       118       s41250n914e         0         0         0         0  
     119  hru0119                119      28.11733      41.21005       0.97846     396.23913       119       s41154n998e         0         0         0         0  
     120  hru0120                120     141.19789      41.21731       0.96195     516.07359       120       s41250n914e         0         0         0         0  
     121  hru0121                121     423.30061      41.21016       0.96370     433.46636       121       s41250n914e         0         0         0         0  
     122  hru0122                122     121.68275      41.20972       0.96921     390.90957       122       s41154n998e         0         0         0         0  
     123  hru0123                123      79.96714      41.19502       0.98667     441.33803       123       s41154n998e         0         0         0         0  
     124  hru0124                124      71.57898      41.20168       1.00948     440.92105       124       s41154n998e         0         0         0         0  
     125  hru0125                125      36.34870      41.20682       0.99781     422.88333       125       s41154n998e         0         0         0         0  
     126  hru0126                126      21.25001      41.19450       1.00626     403.36842       126       s41154n998e         0         0         0         0  
     127  hru0127                127     212.28484      41.20399       0.99306     369.61473       127       s41154n998e         0         0         0         0  
     128  hru0128                128      90.80740      41.20358       0.99527     335.07285       128       s41154n998e         0         0         0         0  
     129  hru0129                129      42.92931      41.20014       1.00626     379.67105       129       s41154n998e         0         0         0         0  
     130  hru0130                130      12.99177      41.20718       1.00424     376.21739       130       s41154n998e         0         0         0         0  
     131  hru0131                131      31.81946      41.20318       0.99549     323.91667       131       s41154n998e         0         0         0         0  
     132  hru0132                132      68.27926      41.19794       0.99495     343.18447       132       s41154n998e         0         0         0         0  
     133  hru0133                133      71.01977      41.18651       0.99229     401.92623       133       s41154n998e         0         0         0         0  
     134  hru0134                134     256.20207      41.18936       0.97548     475.46173       134       s41154n998e         0         0         0         0  
     135  hru0135                135     508.83752      41.18888       0.95801     555.62452       135       s41154n998e         0         0         0         0  
     136  hru0136                136     195.06578      41.18073       0.97409     394.67893       136       s41154n998e         0         0         0         0  
     137  hru0137                137      65.89178      41.17590       0.98223     337.34653       137       s41154n998e         0         0         0         0  
     138  hru0138                138      81.49630      41.14711       1.02521     174.53333       138      s41137n1024e         0         0         0         0  
     139  hru0139                139      35.01323      41.14364       1.02637     164.93103       139      s41137n1024e         0         0         0         0  
     140  hru0140                140      96.73571      41.18054       0.98627     363.47945       140       s41154n998e         0         0         0         0  
     141  hru0141                141      70.89535      41.16911       1.00303     263.92523       141       s41154n998e         0         0         0         0  
     142  hru0142                142     125.42607      41.18308       0.95742     494.86010       142       s41135n960e         0         0         0         0  
     143  hru0143                143      58.51776      41.16878       1.00070     285.37079       143       s41154n998e         0         0         0         0  
     144  hru0144                144     232.75605      41.15597       1.00765     221.80508       144       s41154n998e         0         0         0         0  
     145  hru0145                145     105.80967      41.14335       1.01828     172.22152       145      s41137n1024e         0         0         0         0  
     146  hru0146                146      84.77225      41.19379       1.01491     407.29323       146       s41154n998e         0         0         0         0  
     147  hru0147                147      39.71847      41.17687       1.00425     332.69355       147       s41154n998e         0         0         0         0  
     148  hru0148                148      11.77716      41.17893       1.00954     271.45000       148       s41154n998e         0         0         0         0  
     149  hru0149                149      22.96546      41.17349       1.01332     238.92308       149       s41154n998e         0         0         0         0  
     150  hru0150                150       7.06630      41.17382       1.01431     234.41667       150       s41154n998e         0         0         0         0  
     151  hru0151                151       6.47744      41.17681       1.01951     256.81818       151       s41154n998e         0         0         0         0  
     152  hru0152                152      21.19889      41.17388       1.01745     239.30556       152       s41154n998e         0         0         0         0  
     153  hru0153                153       8.83287      41.17647       1.01613     243.60000       153       s41154n998e         0         0         0         0  
     154  hru0154                154      34.17392      41.18834       1.01669     326.64286       154       s41154n998e         0         0         0         0  
     155  hru0155                155       7.32298      41.18936       1.01802     321.75000       155       s41154n998e         0         0         0         0  
     156  hru0156                156      21.62515      41.18421       1.00985     290.75676       156       s41154n998e         0         0         0         0  
     157  hru0157                157      16.94944      41.17643       1.01310     243.44828       157       s41154n998e         0         0         0         0  
     158  hru0158                158      30.97656      41.17424       1.01453     239.00000       158       s41154n998e         0         0         0         0  
     159  hru0159                159      17.53390      41.18273       1.01614     285.93333       159       s41154n998e         0         0         0         0  
     160  hru0160                160       8.18249      41.17976       1.01804     272.64286       160       s41154n998e         0         0         0         0  
     161  hru0161                161      33.31442      41.18797       1.01546     329.75556       161       s41154n998e         0         0         0         0  
     162  hru0162                162       1.75339      41.19007       1.02132     343.00000       162       s41154n998e         0         0         0         0  
     163  hru0163                163      10.52034      41.18778       1.02115     344.83333       163       s41154n998e         0         0         0         0  
     164  hru0164                164       8.18249      41.18802       1.00813     320.76923       164       s41154n998e         0         0         0         0  
     165  hru0165                165      76.56471      41.17924       1.00290     352.38211       165       s41154n998e         0         0         0         0  
     166  hru0166                166      11.10481      41.17924       1.01622     264.42105       166       s41154n998e         0         0         0         0  
     167  hru0167                167      12.85820      41.17623       1.01705     249.00000       167       s41154n998e         0         0         0         0  
     168  hru0168                168       4.09124      41.17345       1.01774     236.57143       168       s41154n998e         0         0         0         0  
     169  hru0169                169       3.50678      41.17268       1.01766     234.00000       169       s41154n998e         0         0         0         0  
     170  hru0170                170       1.75339      41.17302       1.01808     230.33333       170       s41154n998e         0         0         0         0  
     171  hru0171                171       5.26017      41.17145       1.01967     239.77778       171       s41154n998e         0         0         0         0  
     172  hru0172                172     200.75180      41.17039       0.94875     504.23750       172       s41135n960e         0         0         0         0  
     173  hru0173                173      85.09479      41.18208       0.92967     592.23188       173       s41135n960e         0         0         0         0  
     174  hru0174                174     241.50141      41.16301       0.96932     401.76455       174       s41135n960e         0         0         0         0  
     175  hru0175                175      35.95555      41.18487       0.93230     540.78571       175       s41135n960e         0         0         0         0  
     176  hru0176                176     248.09326      41.17489       0.95426     455.41108       176       s41135n960e         0         0         0         0  
     177  hru0177                177     308.04851      41.16810       0.96595     361.12445       177       s41135n960e         0         0         0         0  
     178  hru0178                178      76.67583      41.16637       0.97210     306.92105       178       s41154n998e         0         0         0         0  
     179  hru0179                179     103.70482      41.14759       1.00055     210.36970       179       s41154n998e         0         0         0         0  
     180  hru0180                180      20.11245      41.14732       1.00152     206.62500       180       s41154n998e         0         0         0         0  
     181  hru0181                181      22.51223      41.13683       1.01386     163.60000       181      s41137n1024e         0         0         0         0  
     182  hru0182                182      87.23489      41.13670       1.01483     163.25806       182      s41137n1024e         0         0         0         0  