hyd-sed-lte.cha: written by SWAT+ editor v2.0.4 on 2021-11-11 16:22
name                         order            wd            dp           slp           len          mann             k     erod_fact      cov_fact        wd_rto        eq_slp           d50          clay        carbon        dry_bd      side_slp      bed_load        t_conc     shear_bnk       hc_erod         hc_ht        hc_len  description
hydcha001                        3      67.16097       1.81257       0.00120       3.32966       0.05000       1.00000       0.01000       0.00500      37.05289       0.00100      12.00000      50.00000       0.04000       1.00000       0.50000       0.50000      10.00000       0.75000       0.10000       0.30000       0.30000  
hydcha002                        2      27.99649       1.01147       0.00159       8.80694       0.05000       1.00000       0.01000       0.00500      27.67904       0.00100      12.00000      50.00000       0.04000       1.00000       0.50000       0.50000      10.00000       0.75000       0.10000       0.30000       0.30000  
hydcha003                        2      27.23901       0.99314       0.00832       0.96128       0.05000       1.00000       0.01000       0.00500      27.42712       0.00100      12.00000      50.00000       0.04000       1.00000       0.50000       0.50000      10.00000       0.75000       0.10000       0.30000       0.30000  
hydcha004                        2      30.24729       1.06498       0.00311       8.36622       0.05000       1.00000       0.01000       0.00500      28.40176       0.00100      12.00000      50.00000       0.04000       1.00000       0.50000       0.50000      10.00000       0.75000       0.10000       0.30000       0.30000  
hydcha005                        2      29.83217       1.05521       0.00334       2.69611       0.05000       1.00000       0.01000       0.00500      28.27123       0.00100      12.00000      50.00000       0.04000       1.00000       0.50000       0.50000      10.00000       0.75000       0.10000       0.30000       0.30000  
hydcha006                        2      29.19657       1.04017       0.00521       7.68074       0.05000       1.00000       0.01000       0.00500      28.06901       0.00100      12.00000      50.00000       0.04000       1.00000       0.50000       0.50000      10.00000       0.75000       0.10000       0.30000       0.30000  
hydcha007                        2      36.42905       1.20554       0.01721       2.55614       0.05000       1.00000       0.01000       0.00500      30.21800       0.00100      12.00000      50.00000       0.04000       1.00000       0.50000       0.50000      10.00000       0.75000       0.10000       0.30000       0.30000  
hydcha008                        2      27.55967       1.00092       0.01831       3.16689       0.05000       1.00000       0.01000       0.00500      27.53433       0.00100      12.00000      50.00000       0.04000       1.00000       0.50000       0.50000      10.00000       0.75000       0.10000       0.30000       0.30000  
hydcha009                        2      29.76178       1.05355       0.01056       3.50495       0.05000       1.00000       0.01000       0.00500      28.24898       0.00100      12.00000      50.00000       0.04000       1.00000       0.50000       0.50000      10.00000       0.75000       0.10000       0.30000       0.30000  
hydcha010                        2      32.87518       1.12580       0.01078       8.34659       0.05000       1.00000       0.01000       0.00500      29.20155       0.00100      12.00000      50.00000       0.04000       1.00000       0.50000       0.50000      10.00000       0.75000       0.10000       0.30000       0.30000  
hydcha011                        2      30.48166       1.07047       0.01916       1.72242       0.05000       1.00000       0.01000       0.00500      28.47493       0.00100      12.00000      50.00000       0.04000       1.00000       0.50000       0.50000      10.00000       0.75000       0.10000       0.30000       0.30000  
hydcha012                        1      19.04313       0.78230       0.02700       2.00029       0.05000       1.00000       0.01000       0.00500      24.34235       0.00100      12.00000      50.00000       0.04000       1.00000       0.50000       0.50000      10.00000       0.75000       0.10000       0.30000       0.30000  
hydcha013                        1      24.76129       0.93196       0.01576       1.64979       0.05000       1.00000       0.01000       0.00500      26.56894       0.00100      12.00000      50.00000       0.04000       1.00000       0.50000       0.50000      10.00000       0.75000       0.10000       0.30000       0.30000  
hydcha014                        1      15.01965       0.66782       0.00001       2.38818       0.05000       1.00000       0.01000       0.00500      22.49070       0.00100      12.00000      50.00000       0.04000       1.00000       0.50000       0.50000      10.00000       0.75000       0.10000       0.30000       0.30000  
hydcha015                        1      18.79468       0.77549       0.02089       3.54225       0.05000       1.00000       0.01000       0.00500      24.23603       0.00100      12.00000      50.00000       0.04000       1.00000       0.50000       0.50000      10.00000       0.75000       0.10000       0.30000       0.30000  
hydcha016                        1      15.38038       0.67847       0.00256       1.55959       0.05000       1.00000       0.01000       0.00500      22.66934       0.00100      12.00000      50.00000       0.04000       1.00000       0.50000       0.50000      10.00000       0.75000       0.10000       0.30000       0.30000  
hydcha017                        1       9.83313       0.50351       0.00300       1.66742       0.05000       1.00000       0.01000       0.00500      19.52902       0.00100      12.00000      50.00000       0.04000       1.00000       0.50000       0.50000      10.00000       0.75000       0.10000       0.30000       0.30000  
hydcha018                        1      12.82269       0.60099       0.00144       2.08538       0.05000       1.00000       0.01000       0.00500      21.33583       0.00100      12.00000      50.00000       0.04000       1.00000       0.50000       0.50000      10.00000       0.75000       0.10000       0.30000       0.30000  
hydcha019                        1      11.05615       0.54444       0.03994       0.17525       0.05000       1.00000       0.01000       0.00500      20.30725       0.00100      12.00000      50.00000       0.04000       1.00000       0.50000       0.50000      10.00000       0.75000       0.10000       0.30000       0.30000  
hydcha020                        1      12.27041       0.58361       0.00681       1.91013       0.05000       1.00000       0.01000       0.00500      21.02500       0.00100      12.00000      50.00000       0.04000       1.00000       0.50000       0.50000      10.00000       0.75000       0.10000       0.30000       0.30000  
hydcha021                        1      14.16082       0.64211       0.01777       7.08975       0.05000       1.00000       0.01000       0.00500      22.05359       0.00100      12.00000      50.00000       0.04000       1.00000       0.50000       0.50000      10.00000       0.75000       0.10000       0.30000       0.30000  
hydcha022                        1       8.07986       0.44173       0.00001       0.91875       0.05000       1.00000       0.01000       0.00500      18.29157       0.00100      12.00000      50.00000       0.04000       1.00000       0.50000       0.50000      10.00000       0.75000       0.10000       0.30000       0.30000  
hydcha023                        1      11.05421       0.54438       0.05172       1.95264       0.05000       1.00000       0.01000       0.00500      20.30606       0.00100      12.00000      50.00000       0.04000       1.00000       0.50000       0.50000      10.00000       0.75000       0.10000       0.30000       0.30000  
hydcha024                        1      10.53672       0.52725       0.03303       3.54227       0.05000       1.00000       0.01000       0.00500      19.98411       0.00100      12.00000      50.00000       0.04000       1.00000       0.50000       0.50000      10.00000       0.75000       0.10000       0.30000       0.30000  
hydcha025                        1       7.62351       0.42493       0.01544       3.43236       0.05000       1.00000       0.01000       0.00500      17.94051       0.00100      12.00000      50.00000       0.04000       1.00000       0.50000       0.50000      10.00000       0.75000       0.10000       0.30000       0.30000  
hydcha026                        1       7.79442       0.43126       0.03684       2.76868       0.05000       1.00000       0.01000       0.00500      18.07359       0.00100      12.00000      50.00000       0.04000       1.00000       0.50000       0.50000      10.00000       0.75000       0.10000       0.30000       0.30000  
hydcha027                        1       8.47901       0.45616       0.02177       4.13499       0.05000       1.00000       0.01000       0.00500      18.58795       0.00100      12.00000      50.00000       0.04000       1.00000       0.50000       0.50000      10.00000       0.75000       0.10000       0.30000       0.30000  
hydcha028                        1       9.99753       0.50911       0.04299       6.04758       0.05000       1.00000       0.01000       0.00500      19.63725       0.00100      12.00000      50.00000       0.04000       1.00000       0.50000       0.50000      10.00000       0.75000       0.10000       0.30000       0.30000  
hydcha029                        1       8.99737       0.47456       0.07020       5.35583       0.05000       1.00000       0.01000       0.00500      18.95927       0.00100      12.00000      50.00000       0.04000       1.00000       0.50000       0.50000      10.00000       0.75000       0.10000       0.30000       0.30000  
hydcha030                        1       6.12135       0.36710       0.08677       2.29333       0.05000       1.00000       0.01000       0.00500      16.67499       0.00100      12.00000      50.00000       0.04000       1.00000       0.50000       0.50000      10.00000       0.75000       0.10000       0.30000       0.30000  
hydcha031                        1       5.82330       0.35508       0.17006       1.39365       0.05000       1.00000       0.01000       0.00500      16.39983       0.00100      12.00000      50.00000       0.04000       1.00000       0.50000       0.50000      10.00000       0.75000       0.10000       0.30000       0.30000  
hydcha032                        1       8.91331       0.47160       0.01304      12.27387       0.05000       1.00000       0.01000       0.00500      18.90005       0.00100      12.00000      50.00000       0.04000       1.00000       0.50000       0.50000      10.00000       0.75000       0.10000       0.30000       0.30000  
hydcha033                        1       9.23767       0.48298       0.01337       6.28488       0.05000       1.00000       0.01000       0.00500      19.12658       0.00100      12.00000      50.00000       0.04000       1.00000       0.50000       0.50000      10.00000       0.75000       0.10000       0.30000       0.30000  
hydcha034                        4     155.74308       3.17558       0.00001       3.19693       0.05000       1.00000       0.01000       0.00500      49.04402       0.00100      12.00000      50.00000       0.04000       1.00000       0.50000       0.50000      10.00000       0.75000       0.10000       0.30000       0.30000  
hydcha035                        4     153.14812       3.14020       0.00001       1.74002       0.05000       1.00000       0.01000       0.00500      48.77010       0.00100      12.00000      50.00000       0.04000       1.00000       0.50000       0.50000      10.00000       0.75000       0.10000       0.30000       0.30000  
hydcha036                        4     149.68109       3.09263       0.00001       1.66225       0.05000       1.00000       0.01000       0.00500      48.39927       0.00100      12.00000      50.00000       0.04000       1.00000       0.50000       0.50000      10.00000       0.75000       0.10000       0.30000       0.30000  
hydcha037                        4     144.41090       3.01961       0.00378       5.28747       0.05000       1.00000       0.01000       0.00500      47.82443       0.00100      12.00000      50.00000       0.04000       1.00000       0.50000       0.50000      10.00000       0.75000       0.10000       0.30000       0.30000  
hydcha038                        4     143.96059       3.01332       0.00047       2.11544       0.05000       1.00000       0.01000       0.00500      47.77467       0.00100      12.00000      50.00000       0.04000       1.00000       0.50000       0.50000      10.00000       0.75000       0.10000       0.30000       0.30000  
hydcha039                        3      67.19840       1.81324       0.00146       2.06042       0.05000       1.00000       0.01000       0.00500      37.05977       0.00100      12.00000      50.00000       0.04000       1.00000       0.50000       0.50000      10.00000       0.75000       0.10000       0.30000       0.30000  
hydcha040                        2      57.16868       1.62800       0.00858       2.09784       0.05000       1.00000       0.01000       0.00500      35.11580       0.00100      12.00000      50.00000       0.04000       1.00000       0.50000       0.50000      10.00000       0.75000       0.10000       0.30000       0.30000  
hydcha041                        2      55.79736       1.60187       0.00916       1.63737       0.05000       1.00000       0.01000       0.00500      34.83274       0.00100      12.00000      50.00000       0.04000       1.00000       0.50000       0.50000      10.00000       0.75000       0.10000       0.30000       0.30000  
hydcha042                        2      55.57398       1.59759       0.00734       3.68019       0.05000       1.00000       0.01000       0.00500      34.78620       0.00100      12.00000      50.00000       0.04000       1.00000       0.50000       0.50000      10.00000       0.75000       0.10000       0.30000       0.30000  
hydcha043                        3      79.26842       2.02434       0.00001       4.49626       0.05000       1.00000       0.01000       0.00500      39.15764       0.00100      12.00000      50.00000       0.04000       1.00000       0.50000       0.50000      10.00000       0.75000       0.10000       0.30000       0.30000  
hydcha044                        3      79.09360       2.02136       0.00260       4.99918       0.05000       1.00000       0.01000       0.00500      39.12883       0.00100      12.00000      50.00000       0.04000       1.00000       0.50000       0.50000      10.00000       0.75000       0.10000       0.30000       0.30000  
hydcha045                        3      75.28554       1.95595       0.00234       2.56342       0.05000       1.00000       0.01000       0.00500      38.49051       0.00100      12.00000      50.00000       0.04000       1.00000       0.50000       0.50000      10.00000       0.75000       0.10000       0.30000       0.30000  
hydcha046                        3      74.94510       1.95005       0.00457       1.97025       0.05000       1.00000       0.01000       0.00500      38.43240       0.00100      12.00000      50.00000       0.04000       1.00000       0.50000       0.50000      10.00000       0.75000       0.10000       0.30000       0.30000  
hydcha047                        3      83.72154       2.09946       0.00289       6.21869       0.05000       1.00000       0.01000       0.00500      39.87759       0.00100      12.00000      50.00000       0.04000       1.00000       0.50000       0.50000      10.00000       0.75000       0.10000       0.30000       0.30000  
hydcha048                        3      71.67154       1.89284       0.00703       3.41470       0.05000       1.00000       0.01000       0.00500      37.86448       0.00100      12.00000      50.00000       0.04000       1.00000       0.50000       0.50000      10.00000       0.75000       0.10000       0.30000       0.30000  
hydcha049                        3      71.31466       1.88655       0.01212       1.89764       0.05000       1.00000       0.01000       0.00500      37.80153       0.00100      12.00000      50.00000       0.04000       1.00000       0.50000       0.50000      10.00000       0.75000       0.10000       0.30000       0.30000  
hydcha050                        3      82.13593       2.07287       0.00495       3.43234       0.05000       1.00000       0.01000       0.00500      39.62423       0.00100      12.00000      50.00000       0.04000       1.00000       0.50000       0.50000      10.00000       0.75000       0.10000       0.30000       0.30000  
hydcha051                        3      71.00958       1.88117       0.00001       1.32938       0.05000       1.00000       0.01000       0.00500      37.74755       0.00100      12.00000      50.00000       0.04000       1.00000       0.50000       0.50000      10.00000       0.75000       0.10000       0.30000       0.30000  
hydcha052                        3      77.60357       1.99590       0.00426       3.98816       0.05000       1.00000       0.01000       0.00500      38.88156       0.00100      12.00000      50.00000       0.04000       1.00000       0.50000       0.50000      10.00000       0.75000       0.10000       0.30000       0.30000  
hydcha053                        3      77.37862       1.99204       0.00295       3.72271       0.05000       1.00000       0.01000       0.00500      38.84396       0.00100      12.00000      50.00000       0.04000       1.00000       0.50000       0.50000      10.00000       0.75000       0.10000       0.30000       0.30000  
hydcha054                        3      59.77470       1.67711       0.00133       1.50462       0.05000       1.00000       0.01000       0.00500      35.64147       0.00100      12.00000      50.00000       0.04000       1.00000       0.50000       0.50000      10.00000       0.75000       0.10000       0.30000       0.30000  
hydcha055                        3      40.62073       1.29633       0.00931       1.82505       0.05000       1.00000       0.01000       0.00500      31.33519       0.00100      12.00000      50.00000       0.04000       1.00000       0.50000       0.50000      10.00000       0.75000       0.10000       0.30000       0.30000  
hydcha056                        3      71.95659       1.89786       0.01101       2.54366       0.05000       1.00000       0.01000       0.00500      37.91461       0.00100      12.00000      50.00000       0.04000       1.00000       0.50000       0.50000      10.00000       0.75000       0.10000       0.30000       0.30000  
hydcha057                        3      68.07385       1.82896       0.00059       1.69750       0.05000       1.00000       0.01000       0.00500      37.22002       0.00100      12.00000      50.00000       0.04000       1.00000       0.50000       0.50000      10.00000       0.75000       0.10000       0.30000       0.30000  
hydcha058                        3      37.75142       1.23454       0.01656       0.48322       0.05000       1.00000       0.01000       0.00500      30.57930       0.00100      12.00000      50.00000       0.04000       1.00000       0.50000       0.50000      10.00000       0.75000       0.10000       0.30000       0.30000  
hydcha059                        3      67.98511       1.82737       0.00547       3.83783       0.05000       1.00000       0.01000       0.00500      37.20384       0.00100      12.00000      50.00000       0.04000       1.00000       0.50000       0.50000      10.00000       0.75000       0.10000       0.30000       0.30000  
hydcha060                        3      67.52740       1.81916       0.00748       0.93637       0.05000       1.00000       0.01000       0.00500      37.12016       0.00100      12.00000      50.00000       0.04000       1.00000       0.50000       0.50000      10.00000       0.75000       0.10000       0.30000       0.30000  
hydcha061                        3      34.96325       1.17298       0.00595       1.67987       0.05000       1.00000       0.01000       0.00500      29.80715       0.00100      12.00000      50.00000       0.04000       1.00000       0.50000       0.50000      10.00000       0.75000       0.10000       0.30000       0.30000  
hydcha062                        2      41.32909       1.31136       0.00786       3.05180       0.05000       1.00000       0.01000       0.00500      31.51629       0.00100      12.00000      50.00000       0.04000       1.00000       0.50000       0.50000      10.00000       0.75000       0.10000       0.30000       0.30000  
hydcha063                        1      14.23007       0.64420       0.00001       1.00896       0.05000       1.00000       0.01000       0.00500      22.08948       0.00100      12.00000      50.00000       0.04000       1.00000       0.50000       0.50000      10.00000       0.75000       0.10000       0.30000       0.30000  
hydcha064                        2      43.51019       1.35710       0.01141       1.92770       0.05000       1.00000       0.01000       0.00500      32.06123       0.00100      12.00000      50.00000       0.04000       1.00000       0.50000       0.50000      10.00000       0.75000       0.10000       0.30000       0.30000  
hydcha065                        1      11.06102       0.54460       0.00034       2.94394       0.05000       1.00000       0.01000       0.00500      20.31023       0.00100      12.00000      50.00000       0.04000       1.00000       0.50000       0.50000      10.00000       0.75000       0.10000       0.30000       0.30000  
hydcha066                        1      10.13025       0.51361       0.00755       3.44482       0.05000       1.00000       0.01000       0.00500      19.72376       0.00100      12.00000      50.00000       0.04000       1.00000       0.50000       0.50000      10.00000       0.75000       0.10000       0.30000       0.30000  
hydcha067                        1      12.93265       0.60442       0.00750       2.26574       0.05000       1.00000       0.01000       0.00500      21.39664       0.00100      12.00000      50.00000       0.04000       1.00000       0.50000       0.50000      10.00000       0.75000       0.10000       0.30000       0.30000  
hydcha068                        1      12.89226       0.60317       0.01120       0.80365       0.05000       1.00000       0.01000       0.00500      21.37434       0.00100      12.00000      50.00000       0.04000       1.00000       0.50000       0.50000      10.00000       0.75000       0.10000       0.30000       0.30000  
hydcha069                        2      39.47579       1.27185       0.00523       1.72238       0.05000       1.00000       0.01000       0.00500      31.03798       0.00100      12.00000      50.00000       0.04000       1.00000       0.50000       0.50000      10.00000       0.75000       0.10000       0.30000       0.30000  
hydcha070                        2      31.48165       1.09376       0.01075       1.20914       0.05000       1.00000       0.01000       0.00500      28.78297       0.00100      12.00000      50.00000       0.04000       1.00000       0.50000       0.50000      10.00000       0.75000       0.10000       0.30000       0.30000  
hydcha071                        2      37.91995       1.23821       0.01045       1.72238       0.05000       1.00000       0.01000       0.00500      30.62474       0.00100      12.00000      50.00000       0.04000       1.00000       0.50000       0.50000      10.00000       0.75000       0.10000       0.30000       0.30000  
hydcha072                        2      31.06487       1.08408       0.00588       1.52957       0.05000       1.00000       0.01000       0.00500      28.65539       0.00100      12.00000      50.00000       0.04000       1.00000       0.50000       0.50000      10.00000       0.75000       0.10000       0.30000       0.30000  
hydcha073                        2      37.20117       1.22252       0.01361       3.74766       0.05000       1.00000       0.01000       0.00500      30.43000       0.00100      12.00000      50.00000       0.04000       1.00000       0.50000       0.50000      10.00000       0.75000       0.10000       0.30000       0.30000  
hydcha074                        2      30.85802       1.07927       0.01152       1.91013       0.05000       1.00000       0.01000       0.00500      28.59165       0.00100      12.00000      50.00000       0.04000       1.00000       0.50000       0.50000      10.00000       0.75000       0.10000       0.30000       0.30000  
hydcha075                        1      11.14066       0.54721       0.01841       3.52989       0.05000       1.00000       0.01000       0.00500      20.35886       0.00100      12.00000      50.00000       0.04000       1.00000       0.50000       0.50000      10.00000       0.75000       0.10000       0.30000       0.30000  
hydcha076                        1      10.38922       0.52232       0.01941       4.79178       0.05000       1.00000       0.01000       0.00500      19.89042       0.00100      12.00000      50.00000       0.04000       1.00000       0.50000       0.50000      10.00000       0.75000       0.10000       0.30000       0.30000  
hydcha077                        1       7.31488       0.41339       0.01039       2.88701       0.05000       1.00000       0.01000       0.00500      17.69507       0.00100      12.00000      50.00000       0.04000       1.00000       0.50000       0.50000      10.00000       0.75000       0.10000       0.30000       0.30000  
hydcha078                        1      22.87126       0.88391       0.01716       0.64086       0.05000       1.00000       0.01000       0.00500      25.87497       0.00100      12.00000      50.00000       0.04000       1.00000       0.50000       0.50000      10.00000       0.75000       0.10000       0.30000       0.30000  
hydcha079                        2      24.09191       0.91509       0.00943       2.75625       0.05000       1.00000       0.01000       0.00500      26.32733       0.00100      12.00000      50.00000       0.04000       1.00000       0.50000       0.50000      10.00000       0.75000       0.10000       0.30000       0.30000  
hydcha080                        2      22.79921       0.88206       0.00059       1.69233       0.05000       1.00000       0.01000       0.00500      25.84777       0.00100      12.00000      50.00000       0.04000       1.00000       0.50000       0.50000      10.00000       0.75000       0.10000       0.30000       0.30000  
hydcha081                        2      18.99701       0.78104       0.00685       1.02141       0.05000       1.00000       0.01000       0.00500      24.32269       0.00100      12.00000      50.00000       0.04000       1.00000       0.50000       0.50000      10.00000       0.75000       0.10000       0.30000       0.30000  
hydcha082                        2      25.02320       0.93852       0.02036       4.66639       0.05000       1.00000       0.01000       0.00500      26.66229       0.00100      12.00000      50.00000       0.04000       1.00000       0.50000       0.50000      10.00000       0.75000       0.10000       0.30000       0.30000  
hydcha083                        1      11.56453       0.56101       0.00745       0.67091       0.05000       1.00000       0.01000       0.00500      20.61385       0.00100      12.00000      50.00000       0.04000       1.00000       0.50000       0.50000      10.00000       0.75000       0.10000       0.30000       0.30000  
hydcha084                        2      24.42124       0.92341       0.00914       2.18800       0.05000       1.00000       0.01000       0.00500      26.44675       0.00100      12.00000      50.00000       0.04000       1.00000       0.50000       0.50000      10.00000       0.75000       0.10000       0.30000       0.30000  
hydcha085                        1      11.54089       0.56024       0.00576       2.42855       0.05000       1.00000       0.01000       0.00500      20.59979       0.00100      12.00000      50.00000       0.04000       1.00000       0.50000       0.50000      10.00000       0.75000       0.10000       0.30000       0.30000  
hydcha086                        2      24.14980       0.91656       0.01939       0.77358       0.05000       1.00000       0.01000       0.00500      26.34840       0.00100      12.00000      50.00000       0.04000       1.00000       0.50000       0.50000      10.00000       0.75000       0.10000       0.30000       0.30000  
hydcha087                        1      18.97732       0.78050       0.01354       3.32451       0.05000       1.00000       0.01000       0.00500      24.31428       0.00100      12.00000      50.00000       0.04000       1.00000       0.50000       0.50000      10.00000       0.75000       0.10000       0.30000       0.30000  
hydcha088                        1      20.41537       0.81945       0.02090       8.99483       0.05000       1.00000       0.01000       0.00500      24.91354       0.00100      12.00000      50.00000       0.04000       1.00000       0.50000       0.50000      10.00000       0.75000       0.10000       0.30000       0.30000  
hydcha089                        1      12.46111       0.58964       0.01357       1.17905       0.05000       1.00000       0.01000       0.00500      21.13337       0.00100      12.00000      50.00000       0.04000       1.00000       0.50000       0.50000      10.00000       0.75000       0.10000       0.30000       0.30000  