initial.cha: written by SWAT+ editor v2.0.4 on 2021-11-11 16:22
name                       org_min              pest              path              hmet              salt  description       
initcha1                   no_init              null              null              null              null  null              
