ls_unit.ele: written by SWAT+ editor v2.0.4 on 2021-11-11 16:22
      id  name                   obj_typ  obj_typ_no      bsn_frac      sub_frac      reg_frac  
       1  hru0001                    hru           1     6.1664E-4       0.28143       0.00000  
       2  hru0002                    hru           2     1.0337E-4       0.04718       0.00000  
       3  hru0003                    hru           3     6.7663E-6       0.00309       0.00000  
       4  hru0004                    hru           4     2.6642E-5       0.01216       0.00000  
       5  hru0005                    hru           5     1.6744E-5       0.00764       0.00000  
       6  hru0006                    hru           6     5.2377E-5       0.02390       0.00000  
       7  hru0007                    hru           7     4.0005E-5       0.01826       0.00000  
       8  hru0008                    hru           8     1.8848E-4       0.08602       0.00000  
       9  hru0009                    hru           9     3.5757E-5       0.01632       0.00000  
      10  hru0010                    hru          10     1.3167E-4       0.06009       0.00000  
      11  hru0011                    hru          11     2.2243E-4       0.10151       0.00000  
      12  hru0012                    hru          12     8.3623E-5       0.03816       0.00000  
      13  hru0013                    hru          13     3.1642E-4       0.14441       0.00000  
      14  hru0014                    hru          14     9.4465E-5       0.04311       0.00000  
      15  hru0015                    hru          15     2.5575E-4       0.11672       0.00000  
      16  hru0016                    hru          16     1.2751E-3       0.30231       0.00000  
      17  hru0017                    hru          17     2.3305E-4       0.05526       0.00000  
      18  hru0018                    hru          18     1.3887E-3       0.32926       0.00000  
      19  hru0019                    hru          19     1.9533E-4       0.04631       0.00000  
      20  hru0020                    hru          20     3.0262E-4       0.07175       0.00000  
      21  hru0021                    hru          21     1.5985E-4       0.03790       0.00000  
      22  hru0022                    hru          22     4.0263E-4       0.09546       0.00000  
      23  hru0023                    hru          23     2.0563E-4       0.04875       0.00000  
      24  hru0024                    hru          24     1.9513E-5       0.00463       0.00000  
      25  hru0025                    hru          25     3.7524E-6       0.00089       0.00000  
      26  hru0026                    hru          26     8.1871E-6       0.00194       0.00000  
      27  hru0027                    hru          27     2.3333E-5       0.00553       0.00000  
      28  hru0028                    hru          28     1.6453E-3       0.46927       0.00000  
      29  hru0029                    hru          29     1.5442E-3       0.44043       0.00000  
      30  hru0030                    hru          30     5.3372E-5       0.01522       0.00000  
      31  hru0031                    hru          31     4.3340E-5       0.01236       0.00000  
      32  hru0032                    hru          32     1.8861E-5       0.00538       0.00000  
      33  hru0033                    hru          33     7.7851E-5       0.02220       0.00000  
      34  hru0034                    hru          34     3.5715E-5       0.01019       0.00000  
      35  hru0035                    hru          35     8.3067E-5       0.02369       0.00000  
      36  hru0036                    hru          36     2.2071E-6       0.00063       0.00000  
      37  hru0037                    hru          37     2.2071E-6       0.00063       0.00000  
      38  hru0038                    hru          38     1.0787E-3       0.75422       0.00000  
      39  hru0039                    hru          39     2.4496E-4       0.17127       0.00000  
      40  hru0040                    hru          40     7.0153E-5       0.04905       0.00000  
      41  hru0041                    hru          41     1.6484E-5       0.01153       0.00000  
      42  hru0042                    hru          42     1.9934E-5       0.01394       0.00000  
      43  hru0043                    hru          43     1.9407E-3       0.66630       0.00000  
      44  hru0044                    hru          44     1.7093E-4       0.05869       0.00000  
      45  hru0045                    hru          45     4.1902E-5       0.01439       0.00000  
      46  hru0046                    hru          46     3.9828E-5       0.01367       0.00000  
      47  hru0047                    hru          47     5.4803E-4       0.18816       0.00000  
      48  hru0048                    hru          48     1.3375E-4       0.04592       0.00000  
      49  hru0049                    hru          49     3.7505E-5       0.01288       0.00000  
      50  hru0050                    hru          50     5.8872E-4       0.44473       0.00000  
      51  hru0051                    hru          51     4.8645E-4       0.36748       0.00000  
      52  hru0052                    hru          52     1.3368E-4       0.10098       0.00000  
      53  hru0053                    hru          53     5.7071E-5       0.04311       0.00000  
      54  hru0054                    hru          54     3.4511E-5       0.02607       0.00000  
      55  hru0055                    hru          55     6.0902E-6       0.00460       0.00000  
      56  hru0056                    hru          56     1.7236E-5       0.01302       0.00000  
      57  hru0057                    hru          57     1.4615E-4       0.29565       0.00000  
      58  hru0058                    hru          58     2.5557E-4       0.51700       0.00000  
      59  hru0059                    hru          59     5.4710E-6       0.01107       0.00000  
      60  hru0060                    hru          60     3.5952E-5       0.07273       0.00000  
      61  hru0061                    hru          61     4.1814E-5       0.08458       0.00000  
      62  hru0062                    hru          62     9.3788E-6       0.01897       0.00000  
      63  hru0063                    hru          63     2.2174E-4       0.09593       0.00000  
      64  hru0064                    hru          64     3.0199E-5       0.01307       0.00000  
      65  hru0065                    hru          65     2.6081E-5       0.01128       0.00000  
      66  hru0066                    hru          66     2.8618E-4       0.12381       0.00000  
      67  hru0067                    hru          67     3.6410E-4       0.15753       0.00000  
      68  hru0068                    hru          68     2.6989E-4       0.11677       0.00000  
      69  hru0069                    hru          69     9.8063E-5       0.04243       0.00000  
      70  hru0070                    hru          70     2.0977E-4       0.09076       0.00000  
      71  hru0071                    hru          71     8.4142E-5       0.03640       0.00000  
      72  hru0072                    hru          72     5.4696E-5       0.02366       0.00000  
      73  hru0073                    hru          73     1.3160E-5       0.00569       0.00000  
      74  hru0074                    hru          74     8.4390E-5       0.03651       0.00000  
      75  hru0075                    hru          75     3.1159E-5       0.01348       0.00000  
      76  hru0076                    hru          76     6.7760E-5       0.02932       0.00000  
      77  hru0077                    hru          77     2.8402E-5       0.01229       0.00000  
      78  hru0078                    hru          78     3.8970E-5       0.01686       0.00000  
      79  hru0079                    hru          79     1.1437E-5       0.00495       0.00000  
      80  hru0080                    hru          80     1.3860E-4       0.05996       0.00000  
      81  hru0081                    hru          81     1.7393E-4       0.07525       0.00000  
      82  hru0082                    hru          82     1.1632E-5       0.00503       0.00000  
      83  hru0083                    hru          83     1.0857E-5       0.00470       0.00000  
      84  hru0084                    hru          84     2.8306E-5       0.01225       0.00000  
      85  hru0085                    hru          85     1.5122E-5       0.00654       0.00000  
      86  hru0086                    hru          86     1.2796E-5       0.00554       0.00000  
      87  hru0087                    hru          87     1.2889E-4       0.27256       0.00000  
      88  hru0088                    hru          88     8.5167E-5       0.18010       0.00000  
      89  hru0089                    hru          89     7.9161E-5       0.16740       0.00000  
      90  hru0090                    hru          90     9.7401E-5       0.20597       0.00000  
      91  hru0091                    hru          91     2.2022E-5       0.04657       0.00000  
      92  hru0092                    hru          92     2.2756E-5       0.04812       0.00000  
      93  hru0093                    hru          93     2.2207E-5       0.04696       0.00000  
      94  hru0094                    hru          94     1.5290E-5       0.03233       0.00000  
      95  hru0095                    hru          95     2.1125E-5       0.23937       0.00000  
      96  hru0096                    hru          96     2.6588E-5       0.30128       0.00000  
      97  hru0097                    hru          97     4.9463E-6       0.05605       0.00000  
      98  hru0098                    hru          98     7.6096E-6       0.08623       0.00000  
      99  hru0099                    hru          99     1.2197E-5       0.13821       0.00000  
     100  hru0100                    hru         100     6.8161E-6       0.07724       0.00000  
     101  hru0101                    hru         101     5.3811E-6       0.06098       0.00000  
     102  hru0102                    hru         102     3.5874E-6       0.04065       0.00000  
     103  hru0103                    hru         103     9.5631E-5       0.07220       0.00000  
     104  hru0104                    hru         104     6.2390E-5       0.04711       0.00000  
     105  hru0105                    hru         105     2.2178E-4       0.16745       0.00000  
     106  hru0106                    hru         106     2.0656E-4       0.15596       0.00000  
     107  hru0107                    hru         107     1.0055E-4       0.07592       0.00000  
     108  hru0108                    hru         108     1.9654E-4       0.14839       0.00000  
     109  hru0109                    hru         109     1.8132E-4       0.13690       0.00000  
     110  hru0110                    hru         110     6.3754E-5       0.04814       0.00000  
     111  hru0111                    hru         111     6.1033E-5       0.04608       0.00000  
     112  hru0112                    hru         112     3.2266E-5       0.02436       0.00000  
     113  hru0113                    hru         113     4.5483E-5       0.03434       0.00000  
     114  hru0114                    hru         114     3.8486E-5       0.02906       0.00000  
     115  hru0115                    hru         115     1.8660E-5       0.01409       0.00000  
     116  hru0116                    hru         116     1.4985E-4       0.13771       0.00000  
     117  hru0117                    hru         117     9.7285E-5       0.08940       0.00000  
     118  hru0118                    hru         118     3.6443E-4       0.33490       0.00000  
     119  hru0119                    hru         119     1.8761E-5       0.01724       0.00000  
     120  hru0120                    hru         120     9.4215E-5       0.08658       0.00000  
     121  hru0121                    hru         121     2.8245E-4       0.25956       0.00000  
     122  hru0122                    hru         122     8.1193E-5       0.07461       0.00000  
     123  hru0123                    hru         123     5.3358E-5       0.10817       0.00000  
     124  hru0124                    hru         124     4.7761E-5       0.09682       0.00000  
     125  hru0125                    hru         125     2.4254E-5       0.04917       0.00000  
     126  hru0126                    hru         126     1.4179E-5       0.02874       0.00000  
     127  hru0127                    hru         127     1.4165E-4       0.28715       0.00000  
     128  hru0128                    hru         128     6.0592E-5       0.12283       0.00000  
     129  hru0129                    hru         129     2.8645E-5       0.05807       0.00000  
     130  hru0130                    hru         130     8.6688E-6       0.01757       0.00000  
     131  hru0131                    hru         131     2.1232E-5       0.04304       0.00000  
     132  hru0132                    hru         132     4.5560E-5       0.09236       0.00000  
     133  hru0133                    hru         133     4.7388E-5       0.09607       0.00000  
     134  hru0134                    hru         134     1.7095E-4       0.13980       0.00000  
     135  hru0135                    hru         135     3.3952E-4       0.27765       0.00000  
     136  hru0136                    hru         136     1.3016E-4       0.10644       0.00000  
     137  hru0137                    hru         137     4.3967E-5       0.03595       0.00000  
     138  hru0138                    hru         138     5.4379E-5       0.04447       0.00000  
     139  hru0139                    hru         139     2.3363E-5       0.01911       0.00000  
     140  hru0140                    hru         140     6.4547E-5       0.05278       0.00000  
     141  hru0141                    hru         141     4.7305E-5       0.03868       0.00000  
     142  hru0142                    hru         142     8.3691E-5       0.06844       0.00000  
     143  hru0143                    hru         143     3.9046E-5       0.03193       0.00000  
     144  hru0144                    hru         144     1.5531E-4       0.12701       0.00000  
     145  hru0145                    hru         145     7.0602E-5       0.05774       0.00000  
     146  hru0146                    hru         146     5.6565E-5       0.16672       0.00000  
     147  hru0147                    hru         147     2.6502E-5       0.07811       0.00000  
     148  hru0148                    hru         148     7.8584E-6       0.02316       0.00000  
     149  hru0149                    hru         149     1.5324E-5       0.04516       0.00000  
     150  hru0150                    hru         150     4.7150E-6       0.01390       0.00000  
     151  hru0151                    hru         151     4.3221E-6       0.01274       0.00000  
     152  hru0152                    hru         152     1.4145E-5       0.04169       0.00000  
     153  hru0153                    hru         153     5.8938E-6       0.01737       0.00000  
     154  hru0154                    hru         154     2.2803E-5       0.06721       0.00000  
     155  hru0155                    hru         155     4.8863E-6       0.01440       0.00000  
     156  hru0156                    hru         156     1.4429E-5       0.04253       0.00000  
     157  hru0157                    hru         157     1.1310E-5       0.03333       0.00000  
     158  hru0158                    hru         158     2.0669E-5       0.06092       0.00000  
     159  hru0159                    hru         159     1.1700E-5       0.03448       0.00000  
     160  hru0160                    hru         160     5.4598E-6       0.01609       0.00000  
     161  hru0161                    hru         161     2.2229E-5       0.06552       0.00000  
     162  hru0162                    hru         162     1.1700E-6       0.00345       0.00000  
     163  hru0163                    hru         163     7.0197E-6       0.02069       0.00000  
     164  hru0164                    hru         164     5.4598E-6       0.01609       0.00000  
     165  hru0165                    hru         165     5.1088E-5       0.15057       0.00000  
     166  hru0166                    hru         166     7.4097E-6       0.02184       0.00000  
     167  hru0167                    hru         167     8.5797E-6       0.02529       0.00000  
     168  hru0168                    hru         168     2.7299E-6       0.00805       0.00000  
     169  hru0169                    hru         169     2.3399E-6       0.00690       0.00000  
     170  hru0170                    hru         170     1.1700E-6       0.00345       0.00000  
     171  hru0171                    hru         171     3.5099E-6       0.01034       0.00000  
     172  hru0172                    hru         172     1.3395E-4       0.16784       0.00000  
     173  hru0173                    hru         173     5.6780E-5       0.07114       0.00000  
     174  hru0174                    hru         174     1.6114E-4       0.20190       0.00000  
     175  hru0175                    hru         175     2.3991E-5       0.03006       0.00000  
     176  hru0176                    hru         176     1.6554E-4       0.20741       0.00000  
     177  hru0177                    hru         177     2.0555E-4       0.25754       0.00000  
     178  hru0178                    hru         178     5.1162E-5       0.06410       0.00000  
     179  hru0179                    hru         179     6.9198E-5       0.35849       0.00000  
     180  hru0180                    hru         180     1.3420E-5       0.06953       0.00000  
     181  hru0181                    hru         181     1.5021E-5       0.07782       0.00000  
     182  hru0182                    hru         182     5.8208E-5       0.30156       0.00000  
     183  hru0183                    hru         183     1.8026E-5       0.09339       0.00000  
     184  hru0184                    hru         184     1.5021E-5       0.07782       0.00000  
     185  hru0185                    hru         185     4.1309E-6       0.02140       0.00000  
     186  hru0186                    hru         186     9.8061E-5       0.24465       0.00000  
     187  hru0187                    hru         187     4.3329E-5       0.10810       0.00000  
     188  hru0188                    hru         188     4.0690E-5       0.10152       0.00000  
     189  hru0189                    hru         189     5.6966E-5       0.14213       0.00000  
     190  hru0190                    hru         190     1.3389E-5       0.03341       0.00000  
     191  hru0191                    hru         191     1.1662E-5       0.02909       0.00000  
     192  hru0192                    hru         192     1.6565E-5       0.04133       0.00000  
     193  hru0193                    hru         193     1.6129E-5       0.04024       0.00000  
     194  hru0194                    hru         194     2.6749E-5       0.06674       0.00000  
     195  hru0195                    hru         195     3.0995E-5       0.07733       0.00000  
     196  hru0196                    hru         196     1.6308E-5       0.04069       0.00000  
     197  hru0197                    hru         197     2.9972E-5       0.07478       0.00000  
     198  hru0198                    hru         198     6.6645E-4       0.19309       0.00000  
     199  hru0199                    hru         199     2.7362E-4       0.07927       0.00000  
     200  hru0200                    hru         200     4.2758E-4       0.12388       0.00000  
     201  hru0201                    hru         201     3.0177E-4       0.08743       0.00000  
     202  hru0202                    hru         202     1.5495E-4       0.04489       0.00000  
     203  hru0203                    hru         203     1.9672E-4       0.05699       0.00000  
     204  hru0204                    hru         204     3.8709E-5       0.01121       0.00000  
     205  hru0205                    hru         205     6.1769E-6       0.00179       0.00000  
     206  hru0206                    hru         206     2.7906E-4       0.08085       0.00000  
     207  hru0207                    hru         207     7.4560E-4       0.21602       0.00000  
     208  hru0208                    hru         208     3.6095E-4       0.10458       0.00000  
     209  hru0209                    hru         209     2.2354E-4       0.18202       0.00000  
     210  hru0210                    hru         210     5.3552E-4       0.43605       0.00000  
     211  hru0211                    hru         211     3.0219E-5       0.02461       0.00000  
     212  hru0212                    hru         212     3.9246E-5       0.03196       0.00000  
     213  hru0213                    hru         213     7.3782E-5       0.06008       0.00000  
     214  hru0214                    hru         214     1.5630E-5       0.01273       0.00000  
     215  hru0215                    hru         215     5.6660E-5       0.04614       0.00000  
     216  hru0216                    hru         216     2.9307E-5       0.02386       0.00000  
     217  hru0217                    hru         217     9.7895E-5       0.07971       0.00000  
     218  hru0218                    hru         218     1.2593E-4       0.10254       0.00000  
     219  hru0219                    hru         219     3.8926E-7       0.00032       0.00000  
     220  hru0220                    hru         220     1.3175E-4       0.19345       0.00000  
     221  hru0221                    hru         221     5.0311E-5       0.07387       0.00000  
     222  hru0222                    hru         222     1.4226E-4       0.20889       0.00000  
     223  hru0223                    hru         223     7.3089E-5       0.10732       0.00000  
     224  hru0224                    hru         224     4.7622E-5       0.06993       0.00000  
     225  hru0225                    hru         225     2.9922E-5       0.04394       0.00000  
     226  hru0226                    hru         226     1.0621E-4       0.15596       0.00000  
     227  hru0227                    hru         227     9.9867E-5       0.14664       0.00000  
     228  hru0228                    hru         228     6.2381E-5       0.34384       0.00000  
     229  hru0229                    hru         229     3.8330E-5       0.21128       0.00000  
     230  hru0230                    hru         230     3.0900E-5       0.17032       0.00000  
     231  hru0231                    hru         231     1.9455E-5       0.10724       0.00000  
     232  hru0232                    hru         232     2.2486E-5       0.12394       0.00000  
     233  hru0233                    hru         233     7.8701E-6       0.04338       0.00000  
     234  hru0234                    hru         234     1.1251E-5       0.15534       0.00000  
     235  hru0235                    hru         235     1.5892E-5       0.21942       0.00000  
     236  hru0236                    hru         236     2.3838E-5       0.32913       0.00000  
     237  hru0237                    hru         237     4.2191E-6       0.05825       0.00000  
     238  hru0238                    hru         238     2.1096E-6       0.02913       0.00000  
     239  hru0239                    hru         239     7.0319E-6       0.09709       0.00000  
     240  hru0240                    hru         240     3.8675E-6       0.05340       0.00000  
     241  hru0241                    hru         241     2.4612E-6       0.03398       0.00000  
     242  hru0242                    hru         242     1.7580E-6       0.02427       0.00000  
     243  hru0243                    hru         243     3.4655E-5       0.04844       0.00000  
     244  hru0244                    hru         244     7.5218E-5       0.10513       0.00000  
     245  hru0245                    hru         245     5.1195E-5       0.07155       0.00000  
     246  hru0246                    hru         246     2.3010E-5       0.03216       0.00000  
     247  hru0247                    hru         247     5.2228E-5       0.07300       0.00000  
     248  hru0248                    hru         248     2.5932E-5       0.03624       0.00000  
     249  hru0249                    hru         249     5.8251E-5       0.08141       0.00000  
     250  hru0250                    hru         250     2.7945E-5       0.03906       0.00000  
     251  hru0251                    hru         251     2.0818E-5       0.02910       0.00000  
     252  hru0252                    hru         252     1.8627E-5       0.02603       0.00000  
     253  hru0253                    hru         253     5.0402E-5       0.07044       0.00000  
     254  hru0254                    hru         254     4.3828E-6       0.00613       0.00000  
     255  hru0255                    hru         255     1.2053E-5       0.01685       0.00000  
     256  hru0256                    hru         256     2.5566E-6       0.00357       0.00000  
     257  hru0257                    hru         257     7.5866E-5       0.10603       0.00000  
     258  hru0258                    hru         258     3.9547E-5       0.05527       0.00000  
     259  hru0259                    hru         259     5.5706E-5       0.07786       0.00000  
     260  hru0260                    hru         260     8.4178E-5       0.11765       0.00000  
     261  hru0261                    hru         261     1.0957E-6       0.00153       0.00000  
     262  hru0262                    hru         262     1.8262E-6       0.00255       0.00000  
     263  hru0263                    hru         263     1.1514E-4       0.22415       0.00000  
     264  hru0264                    hru         264     6.6814E-5       0.13007       0.00000  
     265  hru0265                    hru         265     3.6572E-5       0.07120       0.00000  
     266  hru0266                    hru         266     1.9444E-5       0.03785       0.00000  
     267  hru0267                    hru         267     4.9889E-5       0.09712       0.00000  
     268  hru0268                    hru         268     4.2279E-5       0.08231       0.00000  
     269  hru0269                    hru         269     1.4685E-5       0.02859       0.00000  
     270  hru0270                    hru         270     6.9538E-5       0.13537       0.00000  
     271  hru0271                    hru         271     2.4882E-5       0.04844       0.00000  
     272  hru0272                    hru         272     1.4448E-5       0.02813       0.00000  
     273  hru0273                    hru         273     2.8064E-5       0.05463       0.00000  
     274  hru0274                    hru         274     1.5636E-5       0.03044       0.00000  
     275  hru0275                    hru         275     1.1311E-5       0.02202       0.00000  
     276  hru0276                    hru         276     4.9770E-6       0.00969       0.00000  
     277  hru0277                    hru         277     1.7779E-4       0.23898       0.00000  
     278  hru0278                    hru         278     8.6535E-5       0.11632       0.00000  
     279  hru0279                    hru         279     1.4277E-5       0.01919       0.00000  
     280  hru0280                    hru         280     1.2734E-5       0.01712       0.00000  
     281  hru0281                    hru         281     8.8017E-5       0.11831       0.00000  
     282  hru0282                    hru         282     8.5242E-5       0.11458       0.00000  
     283  hru0283                    hru         283     3.8290E-5       0.05147       0.00000  
     284  hru0284                    hru         284     1.9977E-5       0.02685       0.00000  
     285  hru0285                    hru         285     1.4305E-4       0.19227       0.00000  
     286  hru0286                    hru         286     7.8061E-5       0.10493       0.00000  
     287  hru0287                    hru         287     1.3544E-5       0.05029       0.00000  
     288  hru0288                    hru         288     1.9035E-5       0.07068       0.00000  
     289  hru0289                    hru         289     3.9576E-5       0.14695       0.00000  
     290  hru0290                    hru         290     7.0107E-5       0.26031       0.00000  
     291  hru0291                    hru         291     1.9403E-5       0.07205       0.00000  
     292  hru0292                    hru         292     1.7882E-5       0.06640       0.00000  
     293  hru0293                    hru         293     2.1398E-5       0.07945       0.00000  
     294  hru0294                    hru         294     9.0095E-6       0.03345       0.00000  
     295  hru0295                    hru         295     2.4453E-5       0.09080       0.00000  
     296  hru0296                    hru         296     7.0396E-6       0.02614       0.00000  
     297  hru0297                    hru         297     1.5273E-5       0.05671       0.00000  
     298  hru0298                    hru         298     1.2600E-5       0.04679       0.00000  
     299  hru0299                    hru         299     1.3576E-4       0.16089       0.00000  
     300  hru0300                    hru         300     4.4698E-5       0.05297       0.00000  
     301  hru0301                    hru         301     3.2834E-4       0.38911       0.00000  
     302  hru0302                    hru         302     5.6864E-5       0.06739       0.00000  
     303  hru0303                    hru         303     4.4228E-5       0.05241       0.00000  
     304  hru0304                    hru         304     7.0749E-5       0.08384       0.00000  
     305  hru0305                    hru         305     1.9064E-5       0.02259       0.00000  
     306  hru0306                    hru         306     5.8065E-5       0.06881       0.00000  
     307  hru0307                    hru         307     3.0495E-5       0.03614       0.00000  