ls_unit.def: written by SWAT+ editor v2.0.4 on 2021-11-11 16:22
902
      id              name          area  elem_tot  elements  
       1           rtu0010     235.00882         2      8916     -8923  
       2           rtu0020     754.55748         2      8890     -8905  
       3           rtu0030      51.63871         2      8958     -8966  
       4           rtu0040     437.34826         2      8837     -8845  
       5           rtu0050     661.81857         2      8814     -8836  
       6           rtu0060    1660.34261         2      8756     -8767  
       7           rtu0070    1051.74353         2      6428     -6429  
       8           rtu0080     673.93786         2      8743     -8755  
       9           rtu0090    1297.29086         2      7958     -7959  
      10           rtu0100    2612.49720         2      6384     -6393  
      11           rtu0110     274.52825         2      6372     -6377  
      12           rtu0120     192.32785         2      6362     -6364  
      13           rtu0130     776.68836         2      6353     -6361  
      14           rtu0140     798.81923         2      8768     -8770  
      15           rtu0150    1049.63582         2      6345     -6348  
      16           rtu0160    1627.14630         2      9008     -9019  
      17           rtu0170     291.91679         2      9038     -9044  
      18           rtu0180     330.90929         2      9031     -9034  
      19           rtu0190       1.05385         2      1855     -1856  
      20           rtu0200     867.84649         2      8646     -8656  
      21           rtu0210    2140.89877         2      6334     -6338  
      22           rtu0220      32.14246         2      8924     -8930  
      23           rtu0230     664.98013         2      1830     -1832  
      24           rtu0240    1308.35630         2      1807     -1812  
      25           rtu0250    1931.70930         2      8610     -8612  
      26           rtu0260    2004.42504         2      1813     -1817  
      27           rtu0270    2306.35342         2      7960     -7964  
      28           rtu0280    3035.09154         2      7952     -7955  
      29           rtu0290    2546.10457         2      1789     -1793  
      30           rtu0300    1339.97184         2      6349     -6352  
      31           rtu0310    1233.00594         2      7941     -7942  
      32           rtu0320    2506.58515         2      8727     -8738  
      33           rtu0330    2660.44743         2      9036     -9037  
      34           rtu0340     322.47848         2      7026     -7036  
      35           rtu0350     385.70955         2      6831     -6842  
      36           rtu0360     418.90586         2      6818     -6830  
      37           rtu0370    1349.98343         2      6965     -6985  
      38           rtu0380     509.01014         2      7056     -7082  
      39           rtu0390      67.44648         2      8951     -8957  
      40           rtu0400    2200.96829         2      1977     -1993  
      41           rtu0410     355.14786         2      2018     -2022  
      42           rtu0420     912.10824         2      1975     -1976  
      43           rtu0430     351.45939         2      8417     -8426  
      44           rtu0440    1659.28876         2      8336     -8342  
      45           rtu0450     660.76472         2      8309     -8324  
      46           rtu0460    1362.62964         2      8427     -8444  
      47           rtu0470    3287.48891         2      6771     -6781  
      48           rtu0480     670.24938         2      8410     -8416  
      49           rtu0490     571.18737         2      8380     -8393  
      50           rtu0500     316.68229         2      6956     -6964  
      51           rtu0510     583.83358         2      8170     -8186  
      52           rtu0520     445.77907         2      6746     -6755  
      53           rtu0530     948.46611         2      6718     -6724  
      54           rtu0540     488.98697         2      8146     -8154  
      55           rtu0550     513.75247         2      8212     -8215  
      56           rtu0560     738.22279         2      6521     -6524  
      57           rtu0570     161.23924         2      6500     -6502  
      58           rtu0580      37.41172         2      8139     -8145  
      59           rtu0590     829.38092         2      6482     -6484  
      60           rtu0600     157.02383         2      6480     -6481  
      61           rtu0610     230.26649         2      8155     -8157  
      62           rtu0620     868.37341         2      6452     -6457  
      63           rtu0630     805.14234         2      8162     -8169  
      64           rtu0640     263.46281         2      6458     -6466  
      65           rtu0650     347.77091         1      6150  
      66           rtu0660    1299.39857         2      8110     -8120  
      67           rtu0670    2288.96487         2      8012     -8021  
      68           rtu0680    1001.68559         2      7965     -7968  
      69           rtu0690    1940.66704         2      6416     -6422  
      70           rtu0700     451.04833         2      8097     -8109  
      71           rtu0710     484.24464         2      6447     -6451  
      72           rtu0720     222.36261         2      8081     -8096  
      73           rtu0730     931.60449         2      6439     -6446  
      74           rtu0740    1161.87098         2      7981     -7988  
      75           rtu0750     600.16828         2      8059     -8068  
      76           rtu0760    3235.85020         2      6412     -6415  
      77           rtu0770    1803.13945         2      7972     -7980  
      78           rtu0780    2079.24848         2      2023     -2025  
      79           rtu0790    1154.49402         2      8363     -8379  
      80           rtu0800     318.79000         2      8325     -8331  
      81           rtu0810     197.07018         2      6925     -6934  
      82           rtu0820     556.96037         2      8194     -8211  
      83           rtu0830      13.17314         2      8969     -8976  
      84           rtu0840     248.18196         2      8296     -8308  
      85           rtu0850     702.91877         2      8967     -8968  
      86           rtu0860    1757.29693         2      8343     -8362  
      87           rtu0870    1103.90916         2      1927     -1930  
      88           rtu0880    2529.76988         2      1994     -1997  
      89           rtu0890      75.87729         2      2166     -2168  
      90           rtu0900    1568.65756         2      6610     -6623  
      91           rtu0910    1533.35354         2      6680     -6702  
      92           rtu0920      21.60395         2      8187     -8193  
      93           rtu0930     206.02792         2      1954     -1958  
      94           rtu0940     102.22357         2      8216     -8223  
      95           rtu0950    5188.10960         2      1922     -1926  
      96           rtu0960     420.48664         2      8494     -8500  
      97           rtu0970     840.97328         2      2102     -2107  
      98           rtu0980    1138.15933         2      6707     -6717  
      99           rtu0990     137.00066         2      8515     -8520  
     100           rtu1000    1292.54853         2      6876     -6877  
     101           rtu1010      40.57327         2      1933     -1936  
     102           rtu1020    4674.88406         2      1888     -1892  
     103           rtu1030     159.13154         2      6803     -6810  
     104           rtu1040    1072.82055         2      6540     -6546  
     105           rtu1050     325.11310         2      8290     -8295  
     106           rtu1060     378.85952         2      7037     -7044  
     107           rtu1070     647.59158         2      8521     -8526  
     108           rtu1080    3152.59595         2      8906     -8915  
     109           rtu1090     399.40962         2      8474     -8482  
     110           rtu1100     431.55208         2      1912     -1915  
     111           rtu1110     176.52008         2      2095     -2098  
     112           rtu1120     369.37486         2      8501     -8506  
     113           rtu1130     346.71705         2      7083     -7087  
     114           rtu1140    2030.77132         2      6725     -6734  
     115           rtu1150    2594.58173         2      6843     -6851  
     116           rtu1160    1880.07059         2      1916     -1921  
     117           rtu1170    2282.64176         2      1857     -1862  
     118           rtu1180    1750.44689         2      2003     -2010  
     119           rtu1190    1269.89073         2      8571     -8578  
     120           rtu1200    2112.97172         2      8468     -8469  
     121           rtu1210    1902.72840         2      6703     -6706  
     122           rtu1220    1104.43609         2      7045     -7046  
     123           rtu1230    1609.23083         2      1950     -1953  
     124           rtu1240    2229.42228         2      6935     -6955  
     125           rtu1250     525.87176         2      1897     -1899  
     126           rtu1260    1400.04136         2      8507     -8514  
     127           rtu1270    3677.94079         2      6467     -6470  
     128           rtu1280    1944.35552         2      6782     -6786  
     129           rtu1290    1152.91325         2      2068     -2075  
     130           rtu1300    2068.70996         2      6525     -6532  
     131           rtu1310    1288.86005         2      6495     -6496  
     132           rtu1320    1772.05084         2      6871     -6875  
     133           rtu1330    3869.74172         2      6740     -6745  
     134           rtu1340    1752.55460         2      2031     -2035  
     135           rtu1350    1604.48850         2      6589     -6590  
     136           rtu1360    3157.86521         2      6579     -6580  
     137           rtu1370    1798.39712         2      8540     -8549  
     138           rtu1380    1953.84018         2      1970     -1974  
     139           rtu1390    2972.38739         2      6535     -6539  
     140           rtu1400    2027.08284         2      6497     -6499  
     141           rtu1410    1879.01674         2      6485     -6494  
     142           rtu1420    1305.19475         1      1887  
     143           rtu1430    1387.92207         2      8332     -8335  
     144           rtu1440     135.41988         2      7206     -7215  
     145           rtu1450    1054.37816         2      2686     -2696  
     146           rtu1460    2235.21846         2      2601     -2608  
     147           rtu1470      60.06952         2      7224     -7227  
     148           rtu1480     208.66254         2      7201     -7205  
     149           rtu1490     426.28282         2      2663     -2670  
     150           rtu1500     343.55550         2      2590     -2600  
     151           rtu1510    1540.20357         2      2536     -2545  
     152           rtu1520     411.52891         2      2429     -2438  
     153           rtu1530     438.92904         2      2352     -2370  
     154           rtu1540      96.95431         2      2295     -2300  
     155           rtu1550     232.37420         2      2239     -2245  
     156           rtu1560    1073.87440         2      2697     -2707  
     157           rtu1570     117.50441         2      2585     -2589  
     158           rtu1580      73.24266         2      2647     -2649  
     159           rtu1590     408.36735         2      2336     -2344  
     160           rtu1600     203.39329         2      2308     -2314  
     161           rtu1610    1212.98277         2      2229     -2232  
     162           rtu1620    2245.23004         2      2112     -2116  
     163           rtu1630     135.41988         2      7262     -7267  
     164           rtu1640    1730.95064         2      5542     -5551  
     165           rtu1650    1417.42990         2      2108     -2111  
     166           rtu1660     560.64885         2      2199     -2202  
     167           rtu1670    4118.45061         2      2083     -2087  
     168           rtu1680     806.72312         2      7155     -7162  
     169           rtu1690    1595.53076         2      7088     -7093  
     170           rtu1700     622.82608         2      2158     -2165  
     171           rtu1710    1004.32022         2      7126     -7130  
     172           rtu1720    1703.02359         2      6787     -6800  
     173           rtu1730    2359.57290         2      2076     -2082  
     174           rtu1740     917.90442         2      7047     -7048  
     175           rtu1750     868.37341         2      7184     -7188  
     176           rtu1760     167.03542         2      7246     -7252  
     177           rtu1770     198.65096         2      7371     -7382  
     178           rtu1780     231.84727         2      7309     -7316  
     179           rtu1790      30.56169         2      7443     -7450  
     180           rtu1800      35.30402         2      7268     -7271  
     181           rtu1810      14.22699         2      7435     -7436  
     182           rtu1820    1410.05295         2      5395     -5405  
     183           rtu1830      32.14246         2      7451     -7454  
     184           rtu1840     181.78934         2      5606     -5611  
     185           rtu1850     120.66597         2      5600     -5603  
     186           rtu1860      59.54259         2      7689     -7698  
     187           rtu1870     442.61752         2      6240     -6252  
     188           rtu1880     276.10902         2      6031     -6044  
     189           rtu1890    1907.99765         2      7480     -7493  
     190           rtu1900      91.68506         2      7742     -7745  
     191           rtu1910      10.53851         2      2546     -2547  
     192           rtu1920     230.26649         2      7699     -7711  
     193           rtu1930     318.79000         2      7733     -7741  
     194           rtu1940     375.17104         2      6253     -6261  
     195           rtu1950     559.06808         2      6012     -6030  
     196           rtu1960    1517.54577         2      7612     -7634  
     197           rtu1970     823.05781         2      5384     -5394  
     198           rtu1980     434.18671         2      5999     -6011  
     199           rtu1990     240.80501         2      5350     -5356  
     200           rtu2000     389.39803         2      7814     -7823  
     201           rtu2010    1246.70600         2      2396     -2403  
     202           rtu2020     178.10086         2      5414     -5415  
     203           rtu2030     923.17368         2      2570     -2578  
     204           rtu2040     297.18605         2      7291     -7297  
     205           rtu2050      12.64621         2      2325     -2329  
     206           rtu2060    1907.47073         2      2413     -2416  
     207           rtu2070     597.53365         2      7864     -7874  
     208           rtu2080    1090.73602         2      7793     -7799  
     209           rtu2090     154.38921         2      7517     -7532  
     210           rtu2100     915.26979         2      7647     -7683  
     211           rtu2110    1348.40265         2      7317     -7330  
     212           rtu2120    1441.14156         2      6114     -6129  
     213           rtu2130     490.04082         2      5482     -5494  
     214           rtu2140    1045.94735         2      7824     -7832  
     215           rtu2150     164.92772         2      7412     -7413  
     216           rtu2160     779.32298         2      5988     -5998  
     217           rtu2170     245.54734         2      5496     -5502  
     218           rtu2180    1704.07744         2      6233     -6239  
     219           rtu2190    3582.56726         2      7455     -7479  
     220           rtu2200    1475.39172         2      2481     -2487  
     221           rtu2210    1714.61595         2      2460     -2463  
     222           rtu2220    1763.09311         2      6209     -6215  
     223           rtu2230    1363.15657         2      5438     -5449  
     224           rtu2240     628.09533         2      6130     -6138  
     225           rtu2250    3047.73776         2      7216     -7223  
     226           rtu2260     425.22897         2      5480     -5481  
     227           rtu2270    2053.42912         2      2494     -2498  
     228           rtu2280    1726.73524         2      7730     -7732  
     229           rtu2290    2189.90286         2      5347     -5349  
     230           rtu2300     824.11166         2      7414     -7422  
     231           rtu2310    1448.51852         2      7283     -7290  
     232           rtu2320    1419.01068         2      6045     -6051  
     233           rtu2330    1080.72444         2      7423     -7434  
     234           rtu2340     915.26979         2      5477     -5478  
     235           rtu2350    1335.22951         2      5519     -5541  
     236           rtu2360     935.29297         2      5559     -5563  
     237           rtu2370     610.70679         1      5479  
     238           rtu2380    1087.04754         2      7930     -7937  
     239           rtu2390    3421.32802         2      2511     -2514  
     240           rtu2400    1547.05361         1      5410  
     241           rtu2410    1303.61397         2      7928     -7929  
     242           rtu2420    1440.61463         2      2455     -2459  
     243           rtu2430    2214.14143         2      5406     -5409  
     244           rtu2440    2362.73446         2      2439     -2454  
     245           rtu2450    1760.45848         2      7875     -7885  
     246           rtu2460    2329.53814         2      2371     -2373  
     247           rtu2470    2976.60280         2      2345     -2351  
     248           rtu2480    1581.30377         2      7642     -7646  
     249           rtu2490    1227.20976         2      6082     -6105  
     250           rtu2500    3201.60004         2      2283     -2289  
     251           rtu2510    2782.16725         2      2290     -2294  
     252           rtu2520     998.52404         2      7533     -7543  
     253           rtu2530    2090.84084         2      2208     -2218  
     254           rtu2540    1436.39923         2      7298     -7308  
     255           rtu2550    2974.49510         2      6196     -6208  
     256           rtu2560    1049.63582         2      3282     -3303  
     257           rtu2570    1103.38224         2      3202     -3212  
     258           rtu2580     925.80831         2      3186     -3190  
     259           rtu2590     447.35985         2      3161     -3163  
     260           rtu2600     363.05175         2      3031     -3036  
     261           rtu2610     595.42594         2      2979     -2984  
     262           rtu2620     521.65636         2      2883     -2906  
     263           rtu2630     312.99382         2      3533     -3551  
     264           rtu2640       4.74233         2      3596     -3599  
     265           rtu2650     193.38170         2      2927     -2933  
     266           rtu2660     155.96998         2      2919     -2926  
     267           rtu2670     125.40830         2      2845     -2852  
     268           rtu2680    1000.63174         2      2744     -2767  
     269           rtu2690     913.16209         2      5810     -5822  
     270           rtu2700     649.17236         2      5564     -5573  
     271           rtu2710     169.67005         2      5719     -5730  
     272           rtu2720      20.02317         2      2853     -2862  
     273           rtu2730     324.58618         2      2863     -2869  
     274           rtu2740     134.36603         2      5004     -5013  
     275           rtu2750     382.54800         2      2813     -2814  
     276           rtu2760     537.99105         2      4967     -4980  
     277           rtu2770    1147.64399         2      4677     -4693  
     278           rtu2780     795.13075         2      4609     -4616  
     279           rtu2790     716.61884         2      3382     -3386  
     280           rtu2800    1679.31193         2      4617     -4630  
     281           rtu2810     454.20988         2      3488     -3501  
     282           rtu2820     175.46623         2      3387     -3402  
     283           rtu2830     963.22002         2      2728     -2739  
     284           rtu2840      61.65030         2      5915     -5921  
     285           rtu2850     437.34826         2      3342     -3349  
     286           rtu2860    1689.32352         2      4455     -4474  
     287           rtu2870    1785.22398         2      3414     -3429  
     288           rtu2880      66.39263         2      5922     -5928  
     289           rtu2890     848.35024         2      3403     -3413  
     290           rtu2900      71.13496         2      5852     -5859  
     291           rtu2910     227.63187         2      4363     -4371  
     292           rtu2920    1491.19949         2      4379     -4383  
     293           rtu2930       9.48466         2      5823     -5825  
     294           rtu2940     772.99988         2      5688     -5696  
     295           rtu2950    2213.08758         2      5776     -5790  
     296           rtu2960     405.73272         2      5740     -5741  
     297           rtu2970      62.17722         2      5769     -5775  
     298           rtu2980     797.23846         2      5552     -5558  
     299           rtu2990     261.35510         2      5717     -5718  
     300           rtu3000     142.79684         2      2776     -2787  
     301           rtu3010     290.86294         2      5697     -5706  
     302           rtu3020    2716.82847         2      4302     -4308  
     303           rtu3030     540.09876         2      5604     -5605  
     304           rtu3040     436.82133         2      5622     -5637  
     305           rtu3050    1104.96301         2      2650     -2662  
     306           rtu3060    1577.61529         1      5495  
     307           rtu3070    1227.73668         2      5598     -5599  
     308           rtu3080      86.94273         2      3350     -3355  
     309           rtu3090     337.23239         2      3247     -3256  
     310           rtu3100      80.61962         2      3257     -3265  
     311           rtu3110     312.46689         2      5014     -5022  
     312           rtu3120    2328.48429         2      4981     -4998  
     313           rtu3130    2607.22794         2      3020     -3030  
     314           rtu3140    1240.38290         2      4809     -4823  
     315           rtu3150     308.77841         2      3139     -3148  
     316           rtu3160    2578.77396         2      2947     -2953  
     317           rtu3170    5007.90104         2      2968     -2978  
     318           rtu3180     591.21054         2      4736     -4748  
     319           rtu3190     847.82331         2      4550     -4575  
     320           rtu3200     511.64477         2      4824     -4834  
     321           rtu3210     630.20304         2      2912     -2918  
     322           rtu3220    1110.75920         2      4600     -4608  
     323           rtu3230     375.69796         2      3430     -3437  
     324           rtu3240     105.91205         2      3191     -3198  
     325           rtu3250    1428.49534         2      4581     -4599  
     326           rtu3260     491.09467         2      2836     -2844  
     327           rtu3270    1212.45584         2      2815     -2821  
     328           rtu3280     893.66584         2      3266     -3281  
     329           rtu3290      79.03884         2      5293     -5297  
     330           rtu3300    1774.15855         2      4893     -4903  
     331           rtu3310     679.20712         2      2870     -2875  
     332           rtu3320    1470.12247         2      5247     -5260  
     333           rtu3330     126.46215         2      4524     -4534  
     334           rtu3340     209.18947         2      5945     -5951  
     335           rtu3350     157.02383         2      3304     -3315  
     336           rtu3360      73.24266         2      5929     -5937  
     337           rtu3370     123.82752         2      4944     -4953  
     338           rtu3380      76.40421         2      4999     -5003  
     339           rtu3390    2061.33301         2      2999     -3010  
     340           rtu3400     640.21462         2      2964     -2967  
     341           rtu3410    1096.53220         2      3316     -3329  
     342           rtu3420    2580.88166         2      2876     -2882  
     343           rtu3430     436.29441         2      5266     -5273  
     344           rtu3440     393.08651         2      4954     -4966  
     345           rtu3450     234.48190         2      5300     -5306  
     346           rtu3460    1507.53418         2      4864     -4871  
     347           rtu3470    3156.81136         2      3011     -3013  
     348           rtu3480     406.78657         2      4855     -4863  
     349           rtu3490    2030.77132         2      4314     -4317  
     350           rtu3500    2437.55789         2      2954     -2959  
     351           rtu3510    2118.24097         2      4415     -4416  
     352           rtu3520    1586.04610         2      3129     -3138  
     353           rtu3530    1787.33169         2      3077     -3087  
     354           rtu3540     462.64069         2      4726     -4735  
     355           rtu3550     757.19211         2      3330     -3341  
     356           rtu3560    1592.36921         2       938      -941  
     357           rtu3570    2509.74670         2      3156     -3160  
     358           rtu3580     719.78039         2      4665     -4676  
     359           rtu3590    1376.85663         2      4647     -4664  
     360           rtu3600    1392.13747         2      3063     -3068  
     361           rtu3610     947.41226         2      4579     -4580  
     362           rtu3620    1795.23557         2      2991     -2998  
     363           rtu3630    1353.14498         2      5298     -5299  
     364           rtu3640    2313.73037         2      2960     -2963  
     365           rtu3650    1695.11970         2      5826     -5830  
     366           rtu3660    1686.16197         2      4384     -4395  
     367           rtu3670     280.32443         2      4267     -4272  
     368           rtu3680     639.16077         2      4253     -4266  
     369           rtu3690    1459.05703         2      4003     -4009  
     370           rtu3700    1533.88046         2      3901     -3911  
     371           rtu3710     330.90929         2      3769     -3779  
     372           rtu3720     232.90112         2      3780     -3795  
     373           rtu3730     311.41304         2      3759     -3768  
     374           rtu3740     686.58408         2      3636     -3652  
     375           rtu3750      10.53851         2      3653     -3657  
     376           rtu3760      15.28084         2      3828     -3831  
     377           rtu3770     295.60527         2      3832     -3841  
     378           rtu3780    1120.24386         2      3811     -3827  
     379           rtu3790     972.17776         2      3799     -3810  
     380           rtu3800     260.82818         2      3934     -3943  
     381           rtu3810    2356.41135         2      3853     -3865  
     382           rtu3820     197.07018         2      4065     -4072  
     383           rtu3830     204.97406         2      4010     -4023  
     384           rtu3840     840.97328         2      3866     -3870  
     385           rtu3850      17.38855         2      3996     -4002  
     386           rtu3860     230.79342         2      3927     -3933  
     387           rtu3870     397.30191         2      3842     -3852  
     388           rtu3880     608.07216         2      5168     -5178  
     389           rtu3890    2568.76237         2      3219     -3242  
     390           rtu3900     511.64477         2      1039     -1045  
     391           rtu3910     423.64819         2      3944     -3953  
     392           rtu3920      38.46557         2      5161     -5167  
     393           rtu3930     494.25623         2      5120     -5128  
     394           rtu3940      93.79276         2      3725     -3731  
     395           rtu3950     728.73813         2      3572     -3576  
     396           rtu3960     596.47980         2      5038     -5048  
     397           rtu3970     166.50849         2      3577     -3584  
     398           rtu3980     300.87453         2       723      -724  
     399           rtu3990    2908.62939         2      1509     -1518  
     400           rtu4000     106.43897         2      1574     -1579  
     401           rtu4010     373.59026         2      3989     -3995  
     402           rtu4020     171.25082         2      3984     -3988  
     403           rtu4030     662.34550         2      1556     -1564  
     404           rtu4040     629.14918         2      3891     -3900  
     405           rtu4050     768.25755         2       580      -592  
     406           rtu4060     849.40409         2      3912     -3926  
     407           rtu4070     169.67005         2      4088     -4092  
     408           rtu4080     721.36117         2       573      -579  
     409           rtu4090     331.43621         2      1701     -1705  