recall.con: written by SWAT+ editor v2.0.4 on 2021-11-11 16:22
      id  name                gis_id          area           lat           lon          elev       rec               wst       cst      ovfl      rule   out_tot       obj_typ    obj_id       hyd_typ          frac  
       1  pt0008                   8       0.00001      42.25428       3.07216       8.00000         1      s42238n3095e         0         0         0         1           sdc         1           tot       1.00000  
       2  pt0010                  10       0.00001      42.24384       2.97449      24.00000         2      s42238n2969e         0         0         0         1           sdc         2           tot       1.00000  
       3  pt0012                  12       0.00001      42.23795       2.96921      32.00000         3      s42238n2969e         0         0         0         1           sdc         3           tot       1.00000  
       4  pt0014                  14       0.00001      42.30790       2.94011      40.00000         4      s42306n2955e         0         0         0         1           sdc         4           tot       1.00000  
       5  pt0016                  16       0.00001      42.31573       2.91808      49.00000         5      s42316n2918e         0         0         0         1           sdc         5           tot       1.00000  
       6  pt0018                  18       0.00001      42.33463       2.85990      89.00000         6      s42341n2833e         0         0         0         1           sdc         6           tot       1.00000  
       7  pt0020                  20       0.00001      42.26822       2.15943     824.00000         7      s42222n2243e         0         0         0         1           sdc         7           tot       1.00000  
       8  pt0022                  22       0.00001      42.34048       2.83346     147.00000         8      s42341n2833e         0         0         0         1           sdc         8           tot       1.00000  
       9  pt0024                  24       0.00001      42.26863       2.59511     262.00000         9      s42188n2471e         0         0         0         1           sdc         9           tot       1.00000  
      10  pt0026                  26       0.00001      42.29958       2.35891     913.00000        10      s42258n2364e         0         0         0         1           sdc        10           tot       1.00000  
      11  pt0028                  28       0.00001      42.31269       2.36494     946.00000        11      s42324n2412e         0         0         0         1           sdc        11           tot       1.00000  
      12  pt0030                  30       0.00001      42.31129       2.14829     961.00000        12      s42393n2161e         0         0         0         1           sdc        12           tot       1.00000  
      13  pt0032                  32       0.00001      42.31848       2.34815     972.00000        13      s42258n2364e         0         0         0         1           sdc        13           tot       1.00000  
      14  pt0034                  34       0.00001      42.31686       2.78155     178.00000        14      s42341n2833e         0         0         0         1           sdc        14           tot       1.00000  
      15  pt0036                  36       0.00001      42.31362       2.11038    1035.00000        15      s42280n2023e         0         0         0         1           sdc        15           tot       1.00000  
      16  pt0038                  38       0.00001      42.28434       3.09421       4.00000        16      s42238n3095e         0         0         0         1           sdc        16           tot       1.00000  
      17  pt0040                  40       0.00001      42.36208       3.14457       7.00000        17      s42426n3125e         0         0         0         1           sdc        17           tot       1.00000  
      18  pt0042                  42       0.00001      42.30069       3.08630       7.00000        18      s42238n3095e         0         0         0         1           sdc        18           tot       1.00000  
      19  pt0044                  44       0.00001      42.24581       1.97584     853.00000        19      s42260n1977e         0         0         0         1           sdc        19           tot       1.00000  
      20  pt0046                  46       0.00001      42.40460       2.87651      93.00000        20      s42341n2833e         0         0         0         1           sdc        20           tot       1.00000  
      21  pt0048                  48       0.00001      42.34562       2.40956    1072.00000        21      s42324n2412e         0         0         0         1           sdc        21           tot       1.00000  
      22  pt0050                  50       0.00001      42.25226       2.86273      88.00000        22      s42228n2863e         0         0         0         1           sdc        22           tot       1.00000  
      23  pt0052                  52       0.00001      42.25955       1.97737     954.00000        23      s42260n1977e         0         0         0         1           sdc        23           tot       1.00000  
      24  pt0054                  54       0.00001      42.26778       1.81353     922.00000        24      s42259n1860e         0         0         0         1           sdc        24           tot       1.00000  
      25  pt0056                  56       0.00001      42.43016       3.02824     201.00000        25      s42385n3007e         0         0         0         1           sdc        25           tot       1.00000  
      26  pt0058                  58       0.00001      42.27139       1.78353    1024.00000        26      s42265n1762e         0         0         0         1           sdc        26           tot       1.00000  
      27  pt0060                  60       0.00001      42.26271       2.41815     656.00000        27      s42258n2364e         0         0         0         1           sdc        27           tot       1.00000  
      28  pt0062                  62       0.00001      42.28460       2.66537     494.00000        28      s42178n2799e         0         0         0         1           sdc        28           tot       1.00000  
      29  pt0064                  64       0.00001      42.29316       1.86589    1181.00000        29      s42259n1860e         0         0         0         1           sdc        29           tot       1.00000  
      30  pt0066                  66       0.00001      42.31235       1.98328    1685.00000        30      s42280n2023e         0         0         0         1           sdc        30           tot       1.00000  
      31  pt0068                  68       0.00001      42.32643       2.58020     694.00000        31      s42324n2412e         0         0         0         1           sdc        31           tot       1.00000  
      32  pt0070                  70       0.00001      42.37358       2.81969     204.00000        32      s42341n2833e         0         0         0         1           sdc        32           tot       1.00000  
      33  pt0072                  72       0.00001      42.35994       3.09841      91.00000        33      s42426n3125e         0         0         0         1           sdc        33           tot       1.00000  
      34  pt0074                  74       0.00001      42.03522       3.12541       0.00000        34      s42023n3157e         0         0         0         1           sdc        34           tot       1.00000  
      35  pt0076                  76       0.00001      42.05685       2.96491      27.00000        35      s42077n2991e         0         0         0         1           sdc        35           tot       1.00000  
      36  pt0078                  78       0.00001      42.06205       2.90437      37.00000        36      s42077n2991e         0         0         0         1           sdc        36           tot       1.00000  
      37  pt0080                  80       0.00001      42.02731       2.83165      60.00000        37      s41982n2807e         0         0         0         1           sdc        37           tot       1.00000  
      38  pt0082                  82       0.00001      42.01226       2.82292      61.00000        38      s41982n2807e         0         0         0         1           sdc        38           tot       1.00000  
      39  pt0084                  84       0.00001      42.24576       3.10383       4.00000        39      s42238n3095e         0         0         0         1           sdc        39           tot       1.00000  
      40  pt0086                  86       0.00001      42.07286       1.86894     483.00000        40      s42122n1879e         0         0         0         1           sdc        40           tot       1.00000  
      41  pt0088                  88       0.00001      42.08472       1.87838     498.00000        41      s42122n1879e         0         0         0         1           sdc        41           tot       1.00000  
      42  pt0090                  90       0.00001      42.10566       1.88065     525.00000        42      s42122n1879e         0         0         0         1           sdc        42           tot       1.00000  
      43  pt0092                  92       0.00001      42.16865       3.03164       7.00000        43      s42183n3059e         0         0         0         1           sdc        43           tot       1.00000  
      44  pt0094                  94       0.00001      42.16800       2.97803      20.00000        44      s42154n2955e         0         0         0         1           sdc        44           tot       1.00000  
      45  pt0096                  96       0.00001      42.17709       2.87959      57.00000        45      s42228n2863e         0         0         0         1           sdc        45           tot       1.00000  
      46  pt0098                  98       0.00001      42.16989       2.86906      66.00000        46      s42228n2863e         0         0         0         1           sdc        46           tot       1.00000  
      47  pt0100                 100       0.00001      42.03669       2.24054     480.00000        47      s42074n2209e         0         0         0         1           sdc        47           tot       1.00000  
      48  pt0102                 102       0.00001      42.17763       2.79873     112.00000        48      s42178n2799e         0         0         0         1           sdc        48           tot       1.00000  
      49  pt0104                 104       0.00001      42.18284       2.78289     135.00000        49      s42178n2799e         0         0         0         1           sdc        49           tot       1.00000  
      50  pt0106                 106       0.00001      42.04465       2.25711     497.00000        50      s42074n2209e         0         0         0         1           sdc        50           tot       1.00000  
      51  pt0108                 108       0.00001      42.19001       2.77232     114.00000        51      s42178n2799e         0         0         0         1           sdc        51           tot       1.00000  
      52  pt0110                 110       0.00001      42.06356       2.24987     514.00000        52      s42074n2209e         0         0         0         1           sdc        52           tot       1.00000  
      53  pt0112                 112       0.00001      42.07589       2.23568     525.00000        53      s42074n2209e         0         0         0         1           sdc        53           tot       1.00000  
      54  pt0114                 114       0.00001      42.20219       2.67467     146.00000        54      s42178n2799e         0         0         0         1           sdc        54           tot       1.00000  
      55  pt0116                 116       0.00001      42.21110       2.59812     198.00000        55      s42188n2471e         0         0         0         1           sdc        55           tot       1.00000  
      56  pt0118                 118       0.00001      42.13848       2.21034     628.00000        56      s42151n2199e         0         0         0         1           sdc        56           tot       1.00000  
      57  pt0120                 120       0.00001      42.15019       2.20228     629.00000        57      s42151n2199e         0         0         0         1           sdc        57           tot       1.00000  
      58  pt0122                 122       0.00001      42.22204       2.55056     251.00000        58      s42188n2471e         0         0         0         1           sdc        58           tot       1.00000  
      59  pt0124                 124       0.00001      42.16653       2.20120     650.00000        59      s42172n2194e         0         0         0         1           sdc        59           tot       1.00000  
      60  pt0126                 126       0.00001      42.17237       2.19410     657.00000        60      s42172n2194e         0         0         0         1           sdc        60           tot       1.00000  
      61  pt0128                 128       0.00001      42.21599       2.51014     316.00000        61      s42188n2471e         0         0         0         1           sdc        61           tot       1.00000  
      62  pt0130                 130       0.00001      42.21695       2.21200     704.00000        62      s42222n2243e         0         0         0         1           sdc        62           tot       1.00000  
      63  pt0132                 132       0.00001      42.21447       2.46267     348.00000        63      s42188n2471e         0         0         0         1           sdc        63           tot       1.00000  
      64  pt0134                 134       0.00001      42.20556       2.17345     702.00000        64      s42172n2194e         0         0         0         1           sdc        64           tot       1.00000  
      65  pt0136                 136       0.00001      42.03461       3.05963      11.00000        65      s42021n3060e         0         0         0         1           sdc        65           tot       1.00000  
      66  pt0138                 138       0.00001      42.20318       2.82766     109.00000        66      s42178n2799e         0         0         0         1           sdc        66           tot       1.00000  
      67  pt0140                 140       0.00001      42.22026       2.44239     365.00000        67      s42188n2471e         0         0         0         1           sdc        67           tot       1.00000  
      68  pt0142                 142       0.00001      42.21458       2.66230     169.00000        68      s42178n2799e         0         0         0         1           sdc        68           tot       1.00000  
      69  pt0144                 144       0.00001      42.22643       2.26114     736.00000        69      s42222n2243e         0         0         0         1           sdc        69           tot       1.00000  
      70  pt0146                 146       0.00001      42.22094       2.60773     194.00000        70      s42188n2471e         0         0         0         1           sdc        70           tot       1.00000  
      71  pt0148                 148       0.00001      42.22850       2.27870     754.00000        71      s42222n2243e         0         0         0         1           sdc        71           tot       1.00000  
      72  pt0150                 150       0.00001      42.23337       2.60854     203.00000        72      s42188n2471e         0         0         0         1           sdc        72           tot       1.00000  
      73  pt0152                 152       0.00001      42.24996       2.16495     780.00000        73      s42222n2243e         0         0         0         1           sdc        73           tot       1.00000  
      74  pt0154                 154       0.00001      42.24774       2.60405     225.00000        74      s42188n2471e         0         0         0         1           sdc        74           tot       1.00000  
      75  pt0156                 156       0.00001      42.24073       2.66040     234.00000        75      s42178n2799e         0         0         0         1           sdc        75           tot       1.00000  
      76  pt0158                 158       0.00001      42.24599       2.07438     916.00000        76      s42280n2023e         0         0         0         1           sdc        76           tot       1.00000  
      77  pt0160                 160       0.00001      42.21839       2.80739     139.00000        77      s42178n2799e         0         0         0         1           sdc        77           tot       1.00000  
      78  pt0162                 162       0.00001      42.01232       1.65085     561.00000        78      s41963n1606e         0         0         0         1           sdc        78           tot       1.00000  
      79  pt0164                 164       0.00001      42.17621       2.73897     138.00000        79      s42178n2799e         0         0         0         1           sdc        79           tot       1.00000  
      80  pt0166                 166       0.00001      42.16965       2.73020     139.00000        80      s42178n2799e         0         0         0         1           sdc        80           tot       1.00000  
      81  pt0168                 168       0.00001      42.04993       2.26494     504.00000        81      s42074n2209e         0         0         0         1           sdc        81           tot       1.00000  
      82  pt0170                 170       0.00001      42.18853       2.51036     411.00000        82      s42188n2471e         0         0         0         1           sdc        82           tot       1.00000  
      83  pt0172                 172       0.00001      42.23599       2.96129      38.00000        83      s42238n2969e         0         0         0         1           sdc        83           tot       1.00000  
      84  pt0174                 174       0.00001      42.17996       2.49196     431.00000        84      s42188n2471e         0         0         0         1           sdc        84           tot       1.00000  
      85  pt0176                 176       0.00001      42.22422       2.94371      52.00000        85      s42238n2969e         0         0         0         1           sdc        85           tot       1.00000  
      86  pt0178                 178       0.00001      42.17536       2.48848     446.00000        86      s42188n2471e         0         0         0         1           sdc        86           tot       1.00000  
      87  pt0180                 180       0.00001      42.13614       1.67282     847.00000        87      s42136n1673e         0         0         0         1           sdc        87           tot       1.00000  
      88  pt0182                 182       0.00001      42.08186       1.67132     749.00000        88      s42136n1673e         0         0         0         1           sdc        88           tot       1.00000  
      89  pt0184                 184       0.00001      42.00755       1.87623     451.00000        89      s42107n1827e         0         0         0         1           sdc        89           tot       1.00000  
      90  pt0186                 186       0.00001      42.08811       2.82885      88.00000        90      s42114n2792e         0         0         0         1           sdc        90           tot       1.00000  
      91  pt0188                 188       0.00001      42.07108       2.30155     555.00000        91      s41984n2301e         0         0         0         1           sdc        91           tot       1.00000  
      92  pt0190                 190       0.00001      42.21196       2.48467     356.00000        92      s42188n2471e         0         0         0         1           sdc        92           tot       1.00000  
      93  pt0192                 192       0.00001      42.12978       1.94170     665.00000        93      s42081n1962e         0         0         0         1           sdc        93           tot       1.00000  
      94  pt0194                 194       0.00001      42.20283       2.49090     387.00000        94      s42188n2471e         0         0         0         1           sdc        94           tot       1.00000  
      95  pt0196                 196       0.00001      42.13003       2.04445     761.00000        95      s42081n1962e         0         0         0         1           sdc        95           tot       1.00000  
      96  pt0198                 198       0.00001      42.14707       2.45006     462.00000        96      s42146n2455e         0         0         0         1           sdc        96           tot       1.00000  
      97  pt0200                 200       0.00001      42.02098       1.84619     495.00000        97      s42107n1827e         0         0         0         1           sdc        97           tot       1.00000  
      98  pt0202                 202       0.00001      42.07901       2.86573      62.00000        98      s42114n2792e         0         0         0         1           sdc        98           tot       1.00000  
      99  pt0204                 204       0.00001      42.14245       2.43956     465.00000        99      s42146n2455e         0         0         0         1           sdc        99           tot       1.00000  
     100  pt0206                 206       0.00001      42.01068       2.50559     418.00000       100      s41979n2527e         0         0         0         1           sdc       100           tot       1.00000  
     101  pt0208                 208       0.00001      42.14050       1.59983     816.00000       101      s42100n1583e         0         0         0         1           sdc       101           tot       1.00000  
     102  pt0210                 210       0.00001      42.11433       1.70928     884.00000       102      s42136n1673e         0         0         0         1           sdc       102           tot       1.00000  
     103  pt0212                 212       0.00001      42.06927       2.94560      38.00000       103      s42077n2991e         0         0         0         1           sdc       103           tot       1.00000  
     104  pt0214                 214       0.00001      42.09600       2.85516      74.00000       104      s42114n2792e         0         0         0         1           sdc       104           tot       1.00000  
     105  pt0216                 216       0.00001      42.18136       2.70554     182.00000       105      s42178n2799e         0         0         0         1           sdc       105           tot       1.00000  
     106  pt0218                 218       0.00001      42.01785       2.36701     559.00000       106      s41976n2398e         0         0         0         1           sdc       106           tot       1.00000  
     107  pt0220                 220       0.00001      42.12483       2.44762     474.00000       107      s42146n2455e         0         0         0         1           sdc       107           tot       1.00000  
     108  pt0222                 222       0.00001      42.21108       2.86721     112.00000       108      s42228n2863e         0         0         0         1           sdc       108           tot       1.00000  
     109  pt0224                 224       0.00001      42.15562       2.62307     303.00000       109      s42188n2471e         0         0         0         1           sdc       109           tot       1.00000  
     110  pt0226                 226       0.00001      42.14087       1.93888     691.00000       110      s42122n1879e         0         0         0         1           sdc       110           tot       1.00000  
     111  pt0228                 228       0.00001      42.04233       1.88877     477.00000       111      s42122n1879e         0         0         0         1           sdc       111           tot       1.00000  
     112  pt0230                 230       0.00001      42.14684       2.40262     567.00000       112      s42139n2358e         0         0         0         1           sdc       112           tot       1.00000  
     113  pt0232                 232       0.00001      42.02965       2.37303     658.00000       113      s41976n2398e         0         0         0         1           sdc       113           tot       1.00000  
     114  pt0234                 234       0.00001      42.07164       2.75607     236.00000       114      s42114n2792e         0         0         0         1           sdc       114           tot       1.00000  
     115  pt0236                 236       0.00001      42.01180       2.33814     413.00000       115      s41984n2301e         0         0         0         1           sdc       115           tot       1.00000  
     116  pt0238                 238       0.00001      42.14339       2.00121     828.00000       116      s42081n1962e         0         0         0         1           sdc       116           tot       1.00000  
     117  pt0240                 240       0.00001      42.22517       1.74132    1114.00000       117      s42224n1725e         0         0         0         1           sdc       117           tot       1.00000  
     118  pt0242                 242       0.00001      42.06534       1.83573     595.00000       118      s42107n1827e         0         0         0         1           sdc       118           tot       1.00000  
     119  pt0244                 244       0.00001      42.22292       2.97889      32.00000       119      s42238n2969e         0         0         0         1           sdc       119           tot       1.00000  
     120  pt0246                 246       0.00001      42.14478       2.38507     691.00000       120      s42139n2358e         0         0         0         1           sdc       120           tot       1.00000  
     121  pt0248                 248       0.00001      42.08710       2.35754     765.00000       121      s42139n2358e         0         0         0         1           sdc       121           tot       1.00000  
     122  pt0250                 250       0.00001      42.02554       2.46514     840.00000       122      s41969n2414e         0         0         0         1           sdc       122           tot       1.00000  
     123  pt0252                 252       0.00001      42.10789       1.84110     824.00000       123      s42107n1827e         0         0         0         1           sdc       123           tot       1.00000  
     124  pt0254                 254       0.00001      42.02284       2.93249      65.00000       124      s42077n2991e         0         0         0         1           sdc       124           tot       1.00000  
     125  pt0256                 256       0.00001      42.18212       1.58221    1018.00000       125      s42169n1562e         0         0         0         1           sdc       125           tot       1.00000  
     126  pt0258                 258       0.00001      42.14700       2.58886     424.00000       126      s42188n2471e         0         0         0         1           sdc       126           tot       1.00000  
     127  pt0260                 260       0.00001      42.19341       2.31414     931.00000       127      s42139n2358e         0         0         0         1           sdc       127           tot       1.00000  
     128  pt0262                 262       0.00001      42.04285       2.39570     810.00000       128      s41976n2398e         0         0         0         1           sdc       128           tot       1.00000  
     129  pt0264                 264       0.00001      42.04145       2.08524     614.00000       129      s42041n2119e         0         0         0         1           sdc       129           tot       1.00000  
     130  pt0266                 266       0.00001      42.12069       2.76554     174.00000       130      s42114n2792e         0         0         0         1           sdc       130           tot       1.00000  
     131  pt0268                 268       0.00001      42.13590       2.31753     952.00000       131      s42139n2358e         0         0         0         1           sdc       131           tot       1.00000  
     132  pt0270                 270       0.00001      42.03334       2.45895     870.00000       132      s41969n2414e         0         0         0         1           sdc       132           tot       1.00000  
     133  pt0272                 272       0.00001      42.02809       2.14961     722.00000       133      s42041n2119e         0         0         0         1           sdc       133           tot       1.00000  
     134  pt0274                 274       0.00001      42.05766       1.91403     549.00000       134      s42081n1962e         0         0         0         1           sdc       134           tot       1.00000  
     135  pt0276                 276       0.00001      42.09085       2.37122     800.00000       135      s42139n2358e         0         0         0         1           sdc       135           tot       1.00000  
     136  pt0278                 278       0.00001      42.09585       2.58146     425.00000       136      s41984n2601e         0         0         0         1           sdc       136           tot       1.00000  
     137  pt0280                 280       0.00001      42.11854       2.68035     225.00000       137      s42114n2792e         0         0         0         1           sdc       137           tot       1.00000  
     138  pt0282                 282       0.00001      42.10161       1.93520     710.00000       138      s42081n1962e         0         0         0         1           sdc       138           tot       1.00000  