rout_unit.con: written by SWAT+ editor v2.0.4 on 2021-11-11 16:22
      id  name                gis_id          area           lat           lon          elev       rtu               wst       cst      ovfl      rule   out_tot       obj_typ    obj_id       hyd_typ          frac  
       1  rtu0010                 10     235.00882      42.25305       3.08930       5.45964         1      s42238n3095e         0         0         0         2           sdc         1           tot       1.00000           aqu        31           rhg       1.00000  
       2  rtu0020                 20     754.55748      42.25631       2.97690      31.51117         2      s42238n2969e         0         0         0         2           sdc         2           tot       1.00000           aqu        31           rhg       1.00000  
       3  rtu0030                 30      51.63871      42.23930       2.97223      31.02041         3      s42238n2969e         0         0         0         2           sdc         3           tot       1.00000           aqu        31           rhg       1.00000  
       4  rtu0040                 40     437.34826      42.29909       2.97033      30.48675         4      s42306n2955e         0         0         0         2           sdc         4           tot       1.00000           aqu        31           rhg       1.00000  
       5  rtu0050                 50     661.81857      42.30510       2.92265      98.31608         5      s42316n2918e         0         0         0         2           sdc         5           tot       1.00000           aqu        31           rhg       1.00000  
       6  rtu0060                 60    1660.34261      42.31876       2.87849     155.43161         6      s42316n2918e         0         0         0         2           sdc         6           tot       1.00000           aqu        31           rhg       1.00000  
       7  rtu0070                 70    1051.74353      42.26234       2.17329    1205.77455         7      s42222n2243e         0         0         0         2           sdc         7           tot       1.00000           aqu        28           rhg       1.00000  
       8  rtu0080                 80     673.93786      42.33591       2.83920     197.98436         8      s42341n2833e         0         0         0         2           sdc         8           tot       1.00000           aqu        31           rhg       1.00000  
       9  rtu0090                 90    1297.29086      42.26833       2.60871     567.15394         9      s42188n2471e         0         0         0         2           sdc         9           tot       1.00000           aqu        29           rhg       1.00000  
      10  rtu0100                100    2612.49720      42.27581       2.35627    1054.01533        10      s42258n2364e         0         0         0         2           sdc        10           tot       1.00000           aqu        28           rhg       1.00000  
      11  rtu0110                110     274.52825      42.30467       2.35732    1126.40883        11      s42258n2364e         0         0         0         2           sdc        11           tot       1.00000           aqu        28           rhg       1.00000  
      12  rtu0120                120     192.32785      42.30946       2.15697    1083.30959        12      s42393n2161e         0         0         0         2           sdc        12           tot       1.00000           aqu        28           rhg       1.00000  
      13  rtu0130                130     776.68836      42.31086       2.33905    1216.23134        13      s42258n2364e         0         0         0         2           sdc        13           tot       1.00000           aqu        28           rhg       1.00000  
      14  rtu0140                140     798.81923      42.31972       2.78897     296.73879        14      s42341n2833e         0         0         0         2           sdc        14           tot       1.00000           aqu        31           rhg       1.00000  
      15  rtu0150                150    1049.63582      42.31170       2.13164    1298.62851        15      s42393n2161e         0         0         0         2           sdc        15           tot       1.00000           aqu        28           rhg       1.00000  
      16  rtu0160                160    1627.14630      42.29297       3.07573      17.92455        16      s42238n3095e         0         0         0         2           sdc        16           tot       1.00000           aqu        32           rhg       1.00000  
      17  rtu0170                170     291.91679      42.36454       3.15222      38.64079        17      s42426n3125e         0         0         0         2           sdc        17           tot       1.00000           aqu        34           rhg       1.00000  
      18  rtu0180                180     330.90929      42.29445       3.07976      11.20860        18      s42238n3095e         0         0         0         2           sdc        18           tot       1.00000           aqu        32           rhg       1.00000  
      19  rtu0190                190       1.05385      42.24516       1.97629     847.50000        19      s42260n1977e         0         0         0         2           sdc        19           tot       1.00000           aqu        17           rhg       1.00000  
      20  rtu0200                200     867.84649      42.40092       2.87730     155.99211        20      s42341n2833e         0         0         0         2           sdc        20           tot       1.00000           aqu        31           rhg       1.00000  
      21  rtu0210                210    2140.89877      42.33217       2.39193    1160.31602        21      s42324n2412e         0         0         0         2           sdc        21           tot       1.00000           aqu        28           rhg       1.00000  
      22  rtu0220                220      32.14246      42.25116       2.86423      99.95082        22      s42228n2863e         0         0         0         2           sdc        22           tot       1.00000           aqu        31           rhg       1.00000  
      23  rtu0230                230     664.98013      42.26343       1.96223    1196.28605        23      s42260n1977e         0         0         0         2           sdc        23           tot       1.00000           aqu        17           rhg       1.00000  
      24  rtu0240                240    1308.35630      42.27322       1.82042    1257.91462        24      s42259n1860e         0         0         0         2           sdc        24           tot       1.00000           aqu        17           rhg       1.00000  
      25  rtu0250                250    1931.70930      42.44066       3.03425     370.11320        25      s42385n3007e         0         0         0         2           sdc        25           tot       1.00000           aqu        31           rhg       1.00000  
      26  rtu0260                260    2004.42504      42.27477       1.77512    1479.40247        26      s42265n1762e         0         0         0         2           sdc        26           tot       1.00000           aqu        17           rhg       1.00000  
      27  rtu0270                270    2306.35342      42.26917       2.42129     848.23395        27      s42324n2412e         0         0         0         2           sdc        27           tot       1.00000           aqu        29           rhg       1.00000  
      28  rtu0280                280    3035.09154      42.27784       2.65829     702.10174        28      s42178n2799e         0         0         0         2           sdc        28           tot       1.00000           aqu        29           rhg       1.00000  
      29  rtu0290                290    2546.10457      42.29240       1.86515    1514.60617        29      s42259n1860e         0         0         0         2           sdc        29           tot       1.00000           aqu        17           rhg       1.00000  
      30  rtu0300                300    1339.97184      42.31055       1.97478    1894.52261        30      s42260n1977e         0         0         0         2           sdc        30           tot       1.00000           aqu        28           rhg       1.00000  
      31  rtu0310                310    1233.00594      42.33305       2.57010     927.67009        31      s42324n2412e         0         0         0         2           sdc        31           tot       1.00000           aqu        29           rhg       1.00000  
      32  rtu0320                320    2506.58515      42.35920       2.85637     183.46395        32      s42341n2833e         0         0         0         2           sdc        32           tot       1.00000           aqu        31           rhg       1.00000  
      33  rtu0330                330    2660.44743      42.36451       3.11552     228.38938        33      s42426n3125e         0         0         0         2           sdc        33           tot       1.00000           aqu        34           rhg       1.00000  
      34  rtu0340                340     322.47848      42.03412       3.13657      16.44935        34      s42023n3157e         0         0         0         2           sdc        34           tot       1.00000           aqu        28           rhg       1.00000  
      35  rtu0350                350     385.70955      42.05439       2.97963      85.11339        35      s42077n2991e         0         0         0         2           sdc        35           tot       1.00000           aqu        28           rhg       1.00000  
      36  rtu0360                360     418.90586      42.04791       2.89851      46.19371        36      s42077n2991e         0         0         0         2           sdc        36           tot       1.00000           aqu        28           rhg       1.00000  
      37  rtu0370                370    1349.98343      42.03014       2.83920     130.90984        37      s41975n2825e         0         0         0         2           sdc        37           tot       1.00000           aqu        28           rhg       1.00000  
      38  rtu0380                380     509.01014      42.01998       2.82444     102.31988        38      s41982n2807e         0         0         0         2           sdc        38           tot       1.00000           aqu        28           rhg       1.00000  
      39  rtu0390                390      67.44648      42.24128       3.11442       2.21094        39      s42238n3095e         0         0         0         2           sdc        39           tot       1.00000           aqu        31           rhg       1.00000  
      40  rtu0400                400    2200.96829      42.08606       1.84661     694.72444        40      s42107n1827e         0         0         0         2           sdc        40           tot       1.00000           aqu        17           rhg       1.00000  
      41  rtu0410                410     355.14786      42.08708       1.86985     614.22552        41      s42122n1879e         0         0         0         2           sdc        41           tot       1.00000           aqu        17           rhg       1.00000  
      42  rtu0420                420     912.10824      42.10064       1.89502     698.36049        42      s42122n1879e         0         0         0         2           sdc        42           tot       1.00000           aqu        17           rhg       1.00000  
      43  rtu0430                430     351.45939      42.17107       3.05030       8.83058        43      s42183n3059e         0         0         0         2           sdc        43           tot       1.00000           aqu        29           rhg       1.00000  
      44  rtu0440                440    1659.28876      42.16161       2.99856      54.42299        44      s42154n2955e         0         0         0         2           sdc        44           tot       1.00000           aqu        29           rhg       1.00000  
      45  rtu0450                450     660.76472      42.16861       2.88615      99.31180        45      s42228n2863e         0         0         0         2           sdc        45           tot       1.00000           aqu        29           rhg       1.00000  
      46  rtu0460                460    1362.62964      42.15873       2.84958     146.13998        46      s42178n2799e         0         0         0         2           sdc        46           tot       1.00000           aqu        29           rhg       1.00000  
      47  rtu0470                470    3287.48891      42.04062       2.21559     649.55987        47      s42074n2209e         0         0         0         2           sdc        47           tot       1.00000           aqu        28           rhg       1.00000  
      48  rtu0480                480     670.24938      42.17165       2.81181     157.54403        48      s42178n2799e         0         0         0         2           sdc        48           tot       1.00000           aqu        29           rhg       1.00000  
      49  rtu0490                490     571.18737      42.16682       2.78100     203.05074        49      s42178n2799e         0         0         0         2           sdc        49           tot       1.00000           aqu        29           rhg       1.00000  
      50  rtu0500                500     316.68229      42.04514       2.24213     523.74376        50      s42074n2209e         0         0         0         2           sdc        50           tot       1.00000           aqu        28           rhg       1.00000  
      51  rtu0510                510     583.83358      42.19771       2.77636     193.55866        51      s42178n2799e         0         0         0         2           sdc        51           tot       1.00000           aqu        29           rhg       1.00000  
      52  rtu0520                520     445.77907      42.05925       2.25112     565.44444        52      s42074n2209e         0         0         0         2           sdc        52           tot       1.00000           aqu        28           rhg       1.00000  
      53  rtu0530                530     948.46611      42.07638       2.24698     655.70333        53      s42074n2209e         0         0         0         2           sdc        53           tot       1.00000           aqu        28           rhg       1.00000  
      54  rtu0540                540     488.98697      42.20146       2.67807     267.35991        54      s42178n2799e         0         0         0         2           sdc        54           tot       1.00000           aqu        29           rhg       1.00000  
      55  rtu0550                550     513.75247      42.19406       2.60091     375.79385        55      s42188n2471e         0         0         0         2           sdc        55           tot       1.00000           aqu        29           rhg       1.00000  
      56  rtu0560                560     738.22279      42.13616       2.20043     832.38544        56      s42151n2199e         0         0         0         2           sdc        56           tot       1.00000           aqu        28           rhg       1.00000  
      57  rtu0570                570     161.23924      42.14513       2.20337     758.11765        57      s42151n2199e         0         0         0         2           sdc        57           tot       1.00000           aqu        28           rhg       1.00000  
      58  rtu0580                580      37.41172      42.22136       2.55226     306.71831        58      s42188n2471e         0         0         0         2           sdc        58           tot       1.00000           aqu        29           rhg       1.00000  
      59  rtu0590                590     829.38092      42.15848       2.19666     806.32592        59      s42151n2199e         0         0         0         2           sdc        59           tot       1.00000           aqu        28           rhg       1.00000  
      60  rtu0600                600     157.02383      42.17154       2.20017     775.78523        60      s42172n2194e         0         0         0         2           sdc        60           tot       1.00000           aqu        28           rhg       1.00000  
      61  rtu0610                610     230.26649      42.21537       2.51754     416.47368        61      s42188n2471e         0         0         0         2           sdc        61           tot       1.00000           aqu        29           rhg       1.00000  
      62  rtu0620                620     868.37341      42.21073       2.21111     831.47451        62      s42222n2243e         0         0         0         2           sdc        62           tot       1.00000           aqu        28           rhg       1.00000  
      63  rtu0630                630     805.14234      42.20494       2.44060     533.86453        63      s42188n2471e         0         0         0         2           sdc        63           tot       1.00000           aqu        29           rhg       1.00000  
      64  rtu0640                640     263.46281      42.20348       2.18124     781.87400        64      s42172n2194e         0         0         0         2           sdc        64           tot       1.00000           aqu        28           rhg       1.00000  
      65  rtu0650                650     347.77091      42.03270       3.07448      11.60758        65      s42026n3071e         0         0         0         2           sdc        65           tot       1.00000           aqu        27           rhg       1.00000  
      66  rtu0660                660    1299.39857      42.20874       2.80927     178.95580        66      s42178n2799e         0         0         0         2           sdc        66           tot       1.00000           aqu        29           rhg       1.00000  
      67  rtu0670                670    2288.96487      42.23823       2.40613     651.93163        67      s42258n2364e         0         0         0         2           sdc        67           tot       1.00000           aqu        29           rhg       1.00000  
      68  rtu0680                680    1001.68559      42.24456       2.68910     546.62020        68      s42178n2799e         0         0         0         2           sdc        68           tot       1.00000           aqu        29           rhg       1.00000  
      69  rtu0690                690    1940.66704      42.25461       2.24407    1199.31795        69      s42222n2243e         0         0         0         2           sdc        69           tot       1.00000           aqu        28           rhg       1.00000  
      70  rtu0700                700     451.04833      42.22422       2.59297     288.66472        70      s42188n2471e         0         0         0         2           sdc        70           tot       1.00000           aqu        29           rhg       1.00000  
      71  rtu0710                710     484.24464      42.22877       2.27147     859.77367        71      s42222n2243e         0         0         0         2           sdc        71           tot       1.00000           aqu        28           rhg       1.00000  
      72  rtu0720                720     222.36261      42.22907       2.60805     230.67773        72      s42188n2471e         0         0         0         2           sdc        72           tot       1.00000           aqu        29           rhg       1.00000  
      73  rtu0730                730     931.60449      42.23964       2.17112     930.22624        73      s42172n2194e         0         0         0         2           sdc        73           tot       1.00000           aqu        28           rhg       1.00000  
      74  rtu0740                740    1161.87098      42.24691       2.60066     388.33651        74      s42188n2471e         0         0         0         2           sdc        74           tot       1.00000           aqu        29           rhg       1.00000  
      75  rtu0750                750     600.16828      42.23468       2.66552     311.88235        75      s42178n2799e         0         0         0         2           sdc        75           tot       1.00000           aqu        29           rhg       1.00000  
      76  rtu0760                760    3235.85020      42.24740       2.07793    1183.19166        76      s42280n2023e         0         0         0         2           sdc        76           tot       1.00000           aqu        28           rhg       1.00000  
      77  rtu0770                770    1803.13945      42.23706       2.78349     291.95207        77      s42178n2799e         0         0         0         2           sdc        77           tot       1.00000           aqu        29           rhg       1.00000  
      78  rtu0780                780    2079.24848      42.05338       1.62694     985.66675        78      s42100n1583e         0         0         0         2           sdc        78           tot       1.00000           aqu        17           rhg       1.00000  
      79  rtu0790                790    1154.49402      42.16304       2.75325     209.33911        79      s42178n2799e         0         0         0         2           sdc        79           tot       1.00000           aqu        29           rhg       1.00000  
      80  rtu0800                800     318.79000      42.17572       2.73103     192.24132        80      s42178n2799e         0         0         0         2           sdc        80           tot       1.00000           aqu        29           rhg       1.00000  
      81  rtu0810                810     197.07018      42.04557       2.26977     534.70588        81      s42074n2209e         0         0         0         2           sdc        81           tot       1.00000           aqu        28           rhg       1.00000  
      82  rtu0820                820     556.96037      42.19983       2.50551     436.62725        82      s42188n2471e         0         0         0         2           sdc        82           tot       1.00000           aqu        29           rhg       1.00000  
      83  rtu0830                830      13.17314      42.23659       2.96467      36.36000        83      s42238n2969e         0         0         0         2           sdc        83           tot       1.00000           aqu        31           rhg       1.00000  
      84  rtu0840                840     248.18196      42.18375       2.50381     492.36093        84      s42188n2471e         0         0         0         2           sdc        84           tot       1.00000           aqu        29           rhg       1.00000  
      85  rtu0850                850     702.91877      42.22800       2.93430      60.94228        85      s42238n2969e         0         0         0         2           sdc        85           tot       1.00000           aqu        31           rhg       1.00000  
      86  rtu0860                860    1757.29693      42.16168       2.51264     578.44258        86      s42188n2471e         0         0         0         2           sdc        86           tot       1.00000           aqu        29           rhg       1.00000  
      87  rtu0870                870    1103.90916      42.12554       1.66626     996.46969        87      s42136n1673e         0         0         0         2           sdc        87           tot       1.00000           aqu        17           rhg       1.00000  
      88  rtu0880                880    2529.76988      42.06150       1.65737     906.59258        88      s42136n1673e         0         0         0         2           sdc        88           tot       1.00000           aqu        17           rhg       1.00000  
      89  rtu0890                890      75.87729      42.00415       1.87888     499.77083        89      s42081n1962e         0         0         0         2           sdc        89           tot       1.00000           aqu        17           rhg       1.00000  
      90  rtu0900                900    1568.65756      42.07946       2.83586     108.62546        90      s42114n2792e         0         0         0         2           sdc        90           tot       1.00000           aqu        28           rhg       1.00000  
      91  rtu0910                910    1533.35354      42.06845       2.28317     621.60069        91      s42074n2209e         0         0         0         2           sdc        91           tot       1.00000           aqu        28           rhg       1.00000  
      92  rtu0920                920      21.60395      42.21264       2.48336     353.73171        92      s42188n2471e         0         0         0         2           sdc        92           tot       1.00000           aqu        29           rhg       1.00000  
      93  rtu0930                930     206.02792      42.12260       1.93953     821.48849        93      s42081n1962e         0         0         0         2           sdc        93           tot       1.00000           aqu        17           rhg       1.00000  
      94  rtu0940                940     102.22357      42.20656       2.48927     398.99485        94      s42188n2471e         0         0         0         2           sdc        94           tot       1.00000           aqu        29           rhg       1.00000  
      95  rtu0950                950    5188.10960      42.09234       2.01303     781.70343        95      s42081n1962e         0         0         0         2           sdc        95           tot       1.00000           aqu        17           rhg       1.00000  
      96  rtu0960                960     420.48664      42.14356       2.45983     546.14662        96      s42146n2455e         0         0         0         2           sdc        96           tot       1.00000           aqu        29           rhg       1.00000  
      97  rtu0970                970     840.97328      42.01628       1.85566     546.29887        97      s42107n1827e         0         0         0         2           sdc        97           tot       1.00000           aqu        17           rhg       1.00000  
      98  rtu0980                980    1138.15933      42.07223       2.87854      98.83426        98      s42114n2792e         0         0         0         2           sdc        98           tot       1.00000           aqu        28           rhg       1.00000  
      99  rtu0990                990     137.00066      42.14374       2.43958     470.02308        99      s42146n2455e         0         0         0         2           sdc        99           tot       1.00000           aqu        29           rhg       1.00000  
     100  rtu1000               1000    1292.54853      42.03396       2.50351     877.61353       100      s41979n2527e         0         0         0         2           sdc       100           tot       1.00000           aqu        28           rhg       1.00000  
     101  rtu1010               1010      40.57327      42.13909       1.59343     887.83117       101      s42100n1583e         0         0         0         2           sdc       101           tot       1.00000           aqu        17           rhg       1.00000  
     102  rtu1020               1020    4674.88406      42.12968       1.71369    1326.12782       102      s42136n1673e         0         0         0         2           sdc       102           tot       1.00000           aqu        17           rhg       1.00000  
     103  rtu1030               1030     159.13154      42.06321       2.95176      37.40397       103      s42077n2991e         0         0         0         2           sdc       103           tot       1.00000           aqu        28           rhg       1.00000  
     104  rtu1040               1040    1072.82055      42.10506       2.86181     126.13310       104      s42114n2792e         0         0         0         2           sdc       104           tot       1.00000           aqu        28           rhg       1.00000  
     105  rtu1050               1050     325.11310      42.18694       2.71196     205.20583       105      s42178n2799e         0         0         0         2           sdc       105           tot       1.00000           aqu        29           rhg       1.00000  
     106  rtu1060               1060     378.85952      42.02392       2.36076     632.00139       106      s41976n2398e         0         0         0         2           sdc       106           tot       1.00000           aqu        28           rhg       1.00000  
     107  rtu1070               1070     647.59158      42.13133       2.43972     566.92596       107      s42146n2455e         0         0         0         2           sdc       107           tot       1.00000           aqu        29           rhg       1.00000  
     108  rtu1080               1080    3152.59595      42.22146       2.86360     150.15561       108      s42228n2863e         0         0         0         2           sdc       108           tot       1.00000           aqu        31           rhg       1.00000  
     109  rtu1090               1090     399.40962      42.16307       2.63004     379.18470       109      s42188n2471e         0         0         0         2           sdc       109           tot       1.00000           aqu        29           rhg       1.00000  
     110  rtu1100               1100     431.55208      42.14824       1.92985     912.71795       110      s42122n1879e         0         0         0         2           sdc       110           tot       1.00000           aqu        17           rhg       1.00000  
     111  rtu1110               1110     176.52008      42.03632       1.89248     501.42687       111      s42081n1962e         0         0         0         2           sdc       111           tot       1.00000           aqu        17           rhg       1.00000  