rout_unit.ele: written by SWAT+ editor v2.0.4 on 2021-11-11 16:22
      id  name                   obj_typ    obj_id          frac               dlr  
       1  hru0001                    hru         1     2.8143E-1                 0  
       2  hru0002                    hru         2     4.7176E-2                 0  
       3  hru0003                    hru         3     3.0880E-3                 0  
       4  hru0004                    hru         4     1.2159E-2                 0  
       5  hru0005                    hru         5     7.6415E-3                 0  
       6  hru0006                    hru         6     2.3904E-2                 0  
       7  hru0007                    hru         7     1.8258E-2                 0  
       8  hru0008                    hru         8     8.6018E-2                 0  
       9  hru0009                    hru         9     1.6319E-2                 0  
      10  hru0010                    hru        10     6.0092E-2                 0  
      11  hru0011                    hru        11     1.0151E-1                 0  
      12  hru0012                    hru        12     3.8164E-2                 0  
      13  hru0013                    hru        13     1.4441E-1                 0  
      14  hru0014                    hru        14     4.3113E-2                 0  
      15  hru0015                    hru        15     1.1672E-1                 0  
      16  hru0016                    hru        16     3.0231E-1                 0  
      17  hru0017                    hru        17     5.5255E-2                 0  
      18  hru0018                    hru        18     3.2926E-1                 0  
      19  hru0019                    hru        19     4.6312E-2                 0  
      20  hru0020                    hru        20     7.1749E-2                 0  
      21  hru0021                    hru        21     3.7900E-2                 0  
      22  hru0022                    hru        22     9.5463E-2                 0  
      23  hru0023                    hru        23     4.8754E-2                 0  
      24  hru0024                    hru        24     4.6263E-3                 0  
      25  hru0025                    hru        25     8.8968E-4                 0  
      26  hru0026                    hru        26     1.9411E-3                 0  
      27  hru0027                    hru        27     5.5322E-3                 0  
      28  hru0028                    hru        28     4.6927E-1                 0  
      29  hru0029                    hru        29     4.4043E-1                 0  
      30  hru0030                    hru        30     1.5223E-2                 0  
      31  hru0031                    hru        31     1.2361E-2                 0  
      32  hru0032                    hru        32     5.3794E-3                 0  
      33  hru0033                    hru        33     2.2204E-2                 0  
      34  hru0034                    hru        34     1.0187E-2                 0  
      35  hru0035                    hru        35     2.3692E-2                 0  
      36  hru0036                    hru        36     6.2951E-4                 0  
      37  hru0037                    hru        37     6.2951E-4                 0  
      38  hru0038                    hru        38     7.5422E-1                 0  
      39  hru0039                    hru        39     1.7127E-1                 0  
      40  hru0040                    hru        40     4.9049E-2                 0  
      41  hru0041                    hru        41     1.1525E-2                 0  
      42  hru0042                    hru        42     1.3937E-2                 0  
      43  hru0043                    hru        43     6.6630E-1                 0  
      44  hru0044                    hru        44     5.8685E-2                 0  
      45  hru0045                    hru        45     1.4386E-2                 0  
      46  hru0046                    hru        46     1.3674E-2                 0  
      47  hru0047                    hru        47     1.8816E-1                 0  
      48  hru0048                    hru        48     4.5922E-2                 0  
      49  hru0049                    hru        49     1.2877E-2                 0  
      50  hru0050                    hru        50     4.4473E-1                 0  
      51  hru0051                    hru        51     3.6748E-1                 0  
      52  hru0052                    hru        52     1.0098E-1                 0  
      53  hru0053                    hru        53     4.3113E-2                 0  
      54  hru0054                    hru        54     2.6071E-2                 0  
      55  hru0055                    hru        55     4.6007E-3                 0  
      56  hru0056                    hru        56     1.3021E-2                 0  
      57  hru0057                    hru        57     2.9565E-1                 0  
      58  hru0058                    hru        58     5.1700E-1                 0  
      59  hru0059                    hru        59     1.1067E-2                 0  
      60  hru0060                    hru        60     7.2727E-2                 0  
      61  hru0061                    hru        61     8.4585E-2                 0  
      62  hru0062                    hru        62     1.8972E-2                 0  
      63  hru0063                    hru        63     9.5933E-2                 0  
      64  hru0064                    hru        64     1.3065E-2                 0  
      65  hru0065                    hru        65     1.1284E-2                 0  
      66  hru0066                    hru        66     1.2381E-1                 0  
      67  hru0067                    hru        67     1.5753E-1                 0  
      68  hru0068                    hru        68     1.1677E-1                 0  
      69  hru0069                    hru        69     4.2426E-2                 0  
      70  hru0070                    hru        70     9.0757E-2                 0  
      71  hru0071                    hru        71     3.6403E-2                 0  
      72  hru0072                    hru        72     2.3664E-2                 0  
      73  hru0073                    hru        73     5.6936E-3                 0  
      74  hru0074                    hru        74     3.6511E-2                 0  
      75  hru0075                    hru        75     1.3481E-2                 0  
      76  hru0076                    hru        76     2.9316E-2                 0  
      77  hru0077                    hru        77     1.2288E-2                 0  
      78  hru0078                    hru        78     1.6860E-2                 0  
      79  hru0079                    hru        79     4.9481E-3                 0  
      80  hru0080                    hru        80     5.9964E-2                 0  
      81  hru0081                    hru        81     7.5249E-2                 0  
      82  hru0082                    hru        82     5.0327E-3                 0  
      83  hru0083                    hru        83     4.6972E-3                 0  
      84  hru0084                    hru        84     1.2246E-2                 0  
      85  hru0085                    hru        85     6.5425E-3                 0  
      86  hru0086                    hru        86     5.5360E-3                 0  
      87  hru0087                    hru        87     2.7256E-1                 0  
      88  hru0088                    hru        88     1.8010E-1                 0  
      89  hru0089                    hru        89     1.6740E-1                 0  
      90  hru0090                    hru        90     2.0597E-1                 0  
      91  hru0091                    hru        91     4.6568E-2                 0  
      92  hru0092                    hru        92     4.8120E-2                 0  
      93  hru0093                    hru        93     4.6959E-2                 0  
      94  hru0094                    hru        94     3.2333E-2                 0  
      95  hru0095                    hru        95     2.3937E-1                 0  
      96  hru0096                    hru        96     3.0128E-1                 0  
      97  hru0097                    hru        97     5.6048E-2                 0  
      98  hru0098                    hru        98     8.6228E-2                 0  
      99  hru0099                    hru        99     1.3821E-1                 0  
     100  hru0100                    hru       100     7.7236E-2                 0  
     101  hru0101                    hru       101     6.0976E-2                 0  
     102  hru0102                    hru       102     4.0650E-2                 0  
     103  hru0103                    hru       103     7.2204E-2                 0  
     104  hru0104                    hru       104     4.7106E-2                 0  
     105  hru0105                    hru       105     1.6745E-1                 0  
     106  hru0106                    hru       106     1.5596E-1                 0  
     107  hru0107                    hru       107     7.5919E-2                 0  
     108  hru0108                    hru       108     1.4839E-1                 0  
     109  hru0109                    hru       109     1.3690E-1                 0  
     110  hru0110                    hru       110     4.8136E-2                 0  
     111  hru0111                    hru       111     4.6082E-2                 0  
     112  hru0112                    hru       112     2.4362E-2                 0  
     113  hru0113                    hru       113     3.4341E-2                 0  
     114  hru0114                    hru       114     2.9058E-2                 0  
     115  hru0115                    hru       115     1.4089E-2                 0  
     116  hru0116                    hru       116     1.3771E-1                 0  
     117  hru0117                    hru       117     8.9402E-2                 0  
     118  hru0118                    hru       118     3.3490E-1                 0  
     119  hru0119                    hru       119     1.7241E-2                 0  
     120  hru0120                    hru       120     8.6580E-2                 0  
     121  hru0121                    hru       121     2.5956E-1                 0  
     122  hru0122                    hru       122     7.4614E-2                 0  
     123  hru0123                    hru       123     1.0817E-1                 0  
     124  hru0124                    hru       124     9.6823E-2                 0  
     125  hru0125                    hru       125     4.9168E-2                 0  
     126  hru0126                    hru       126     2.8744E-2                 0  
     127  hru0127                    hru       127     2.8715E-1                 0  
     128  hru0128                    hru       128     1.2283E-1                 0  
     129  hru0129                    hru       129     5.8069E-2                 0  
     130  hru0130                    hru       130     1.7574E-2                 0  
     131  hru0131                    hru       131     4.3041E-2                 0  
     132  hru0132                    hru       132     9.2360E-2                 0  
     133  hru0133                    hru       133     9.6067E-2                 0  
     134  hru0134                    hru       134     1.3980E-1                 0  
     135  hru0135                    hru       135     2.7765E-1                 0  
     136  hru0136                    hru       136     1.0644E-1                 0  
     137  hru0137                    hru       137     3.5954E-2                 0  
     138  hru0138                    hru       138     4.4469E-2                 0  
     139  hru0139                    hru       139     1.9105E-2                 0  
     140  hru0140                    hru       140     5.2785E-2                 0  
     141  hru0141                    hru       141     3.8685E-2                 0  
     142  hru0142                    hru       142     6.8440E-2                 0  
     143  hru0143                    hru       143     3.1931E-2                 0  
     144  hru0144                    hru       144     1.2701E-1                 0  
     145  hru0145                    hru       145     5.7736E-2                 0  
     146  hru0146                    hru       146     1.6672E-1                 0  
     147  hru0147                    hru       147     7.8112E-2                 0  
     148  hru0148                    hru       148     2.3161E-2                 0  
     149  hru0149                    hru       149     4.5165E-2                 0  
     150  hru0150                    hru       150     1.3897E-2                 0  
     151  hru0151                    hru       151     1.2739E-2                 0  
     152  hru0152                    hru       152     4.1690E-2                 0  
     153  hru0153                    hru       153     1.7371E-2                 0  
     154  hru0154                    hru       154     6.7208E-2                 0  
     155  hru0155                    hru       155     1.4402E-2                 0  
     156  hru0156                    hru       156     4.2529E-2                 0  
     157  hru0157                    hru       157     3.3333E-2                 0  
     158  hru0158                    hru       158     6.0920E-2                 0  
     159  hru0159                    hru       159     3.4483E-2                 0  
     160  hru0160                    hru       160     1.6092E-2                 0  
     161  hru0161                    hru       161     6.5517E-2                 0  
     162  hru0162                    hru       162     3.4483E-3                 0  
     163  hru0163                    hru       163     2.0690E-2                 0  
     164  hru0164                    hru       164     1.6092E-2                 0  
     165  hru0165                    hru       165     1.5057E-1                 0  
     166  hru0166                    hru       166     2.1839E-2                 0  
     167  hru0167                    hru       167     2.5287E-2                 0  
     168  hru0168                    hru       168     8.0460E-3                 0  
     169  hru0169                    hru       169     6.8966E-3                 0  
     170  hru0170                    hru       170     3.4483E-3                 0  
     171  hru0171                    hru       171     1.0345E-2                 0  
     172  hru0172                    hru       172     1.6784E-1                 0  
     173  hru0173                    hru       173     7.1142E-2                 0  
     174  hru0174                    hru       174     2.0190E-1                 0  
     175  hru0175                    hru       175     3.0060E-2                 0  
     176  hru0176                    hru       176     2.0741E-1                 0  
     177  hru0177                    hru       177     2.5754E-1                 0  
     178  hru0178                    hru       178     6.4104E-2                 0  
     179  hru0179                    hru       179     3.5849E-1                 0  
     180  hru0180                    hru       180     6.9525E-2                 0  
     181  hru0181                    hru       181     7.7821E-2                 0  
     182  hru0182                    hru       182     3.0156E-1                 0  
     183  hru0183                    hru       183     9.3385E-2                 0  
     184  hru0184                    hru       184     7.7821E-2                 0  
     185  hru0185                    hru       185     2.1401E-2                 0  
     186  hru0186                    hru       186     2.4465E-1                 0  
     187  hru0187                    hru       187     1.0810E-1                 0  
     188  hru0188                    hru       188     1.0152E-1                 0  
     189  hru0189                    hru       189     1.4213E-1                 0  
     190  hru0190                    hru       190     3.3405E-2                 0  
     191  hru0191                    hru       191     2.9095E-2                 0  
     192  hru0192                    hru       192     4.1328E-2                 0  
     193  hru0193                    hru       193     4.0240E-2                 0  
     194  hru0194                    hru       194     6.6737E-2                 0  
     195  hru0195                    hru       195     7.7331E-2                 0  
     196  hru0196                    hru       196     4.0688E-2                 0  
     197  hru0197                    hru       197     7.4778E-2                 0  
     198  hru0198                    hru       198     1.9309E-1                 0  
     199  hru0199                    hru       199     7.9273E-2                 0  
     200  hru0200                    hru       200     1.2388E-1                 0  
     201  hru0201                    hru       201     8.7430E-2                 0  
     202  hru0202                    hru       202     4.4893E-2                 0  
     203  hru0203                    hru       203     5.6993E-2                 0  
     204  hru0204                    hru       204     1.1215E-2                 0  
     205  hru0205                    hru       205     1.7896E-3                 0  
     206  hru0206                    hru       206     8.0849E-2                 0  
     207  hru0207                    hru       207     2.1602E-1                 0  
     208  hru0208                    hru       208     1.0458E-1                 0  
     209  hru0209                    hru       209     1.8202E-1                 0  
     210  hru0210                    hru       210     4.3605E-1                 0  
     211  hru0211                    hru       211     2.4606E-2                 0  
     212  hru0212                    hru       212     3.1956E-2                 0  
     213  hru0213                    hru       213     6.0078E-2                 0  
     214  hru0214                    hru       214     1.2727E-2                 0  
     215  hru0215                    hru       215     4.6136E-2                 0  
     216  hru0216                    hru       216     2.3863E-2                 0  
     217  hru0217                    hru       217     7.9712E-2                 0  
     218  hru0218                    hru       218     1.0254E-1                 0  
     219  hru0219                    hru       219     3.1696E-4                 0  
     220  hru0220                    hru       220     1.9345E-1                 0  
     221  hru0221                    hru       221     7.3875E-2                 0  
     222  hru0222                    hru       222     2.0889E-1                 0  
     223  hru0223                    hru       223     1.0732E-1                 0  
     224  hru0224                    hru       224     6.9926E-2                 0  
     225  hru0225                    hru       225     4.3936E-2                 0  
     226  hru0226                    hru       226     1.5596E-1                 0  
     227  hru0227                    hru       227     1.4664E-1                 0  
     228  hru0228                    hru       228     3.4384E-1                 0  
     229  hru0229                    hru       229     2.1128E-1                 0  
     230  hru0230                    hru       230     1.7032E-1                 0  
     231  hru0231                    hru       231     1.0724E-1                 0  
     232  hru0232                    hru       232     1.2394E-1                 0  
     233  hru0233                    hru       233     4.3380E-2                 0  
     234  hru0234                    hru       234     1.5534E-1                 0  
     235  hru0235                    hru       235     2.1942E-1                 0  
     236  hru0236                    hru       236     3.2913E-1                 0  
     237  hru0237                    hru       237     5.8252E-2                 0  
     238  hru0238                    hru       238     2.9126E-2                 0  
     239  hru0239                    hru       239     9.7087E-2                 0  
     240  hru0240                    hru       240     5.3398E-2                 0  
     241  hru0241                    hru       241     3.3981E-2                 0  
     242  hru0242                    hru       242     2.4272E-2                 0  
     243  hru0243                    hru       243     4.8435E-2                 0  
     244  hru0244                    hru       244     1.0513E-1                 0  
     245  hru0245                    hru       245     7.1552E-2                 0  
     246  hru0246                    hru       246     3.2159E-2                 0  
     247  hru0247                    hru       247     7.2996E-2                 0  
     248  hru0248                    hru       248     3.6243E-2                 0  
     249  hru0249                    hru       249     8.1413E-2                 0  
     250  hru0250                    hru       250     3.9056E-2                 0  
     251  hru0251                    hru       251     2.9096E-2                 0  
     252  hru0252                    hru       252     2.6034E-2                 0  
     253  hru0253                    hru       253     7.0444E-2                 0  
     254  hru0254                    hru       254     6.1256E-3                 0  
     255  hru0255                    hru       255     1.6845E-2                 0  
     256  hru0256                    hru       256     3.5733E-3                 0  
     257  hru0257                    hru       257     1.0603E-1                 0  
     258  hru0258                    hru       258     5.5273E-2                 0  
     259  hru0259                    hru       259     7.7857E-2                 0  
     260  hru0260                    hru       260     1.1765E-1                 0  
     261  hru0261                    hru       261     1.5314E-3                 0  
     262  hru0262                    hru       262     2.5523E-3                 0  
     263  hru0263                    hru       263     2.2415E-1                 0  
     264  hru0264                    hru       264     1.3007E-1                 0  
     265  hru0265                    hru       265     7.1197E-2                 0  
     266  hru0266                    hru       266     3.7852E-2                 0  
     267  hru0267                    hru       267     9.7121E-2                 0  
     268  hru0268                    hru       268     8.2306E-2                 0  
     269  hru0269                    hru       269     2.8588E-2                 0  
     270  hru0270                    hru       270     1.3537E-1                 0  
     271  hru0271                    hru       271     4.8440E-2                 0  
     272  hru0272                    hru       272     2.8126E-2                 0  
     273  hru0273                    hru       273     5.4634E-2                 0  
     274  hru0274                    hru       274     3.0439E-2                 0  
     275  hru0275                    hru       275     2.2020E-2                 0  
     276  hru0276                    hru       276     9.6889E-3                 0  
     277  hru0277                    hru       277     2.3898E-1                 0  
     278  hru0278                    hru       278     1.1632E-1                 0  
     279  hru0279                    hru       279     1.9191E-2                 0  
     280  hru0280                    hru       280     1.7116E-2                 0  
     281  hru0281                    hru       281     1.1831E-1                 0  
     282  hru0282                    hru       282     1.1458E-1                 0  
     283  hru0283                    hru       283     5.1467E-2                 0  
     284  hru0284                    hru       284     2.6852E-2                 0  
     285  hru0285                    hru       285     1.9227E-1                 0  
     286  hru0286                    hru       286     1.0493E-1                 0  
     287  hru0287                    hru       287     5.0290E-2                 0  
     288  hru0288                    hru       288     7.0678E-2                 0  
     289  hru0289                    hru       289     1.4695E-1                 0  
     290  hru0290                    hru       290     2.6031E-1                 0  
     291  hru0291                    hru       291     7.2046E-2                 0  
     292  hru0292                    hru       292     6.6395E-2                 0  
     293  hru0293                    hru       293     7.9450E-2                 0  
     294  hru0294                    hru       294     3.3453E-2                 0  
     295  hru0295                    hru       295     9.0797E-2                 0  
     296  hru0296                    hru       296     2.6139E-2                 0  
     297  hru0297                    hru       297     5.6709E-2                 0  
     298  hru0298                    hru       298     4.6785E-2                 0  
     299  hru0299                    hru       299     1.6089E-1                 0  
     300  hru0300                    hru       300     5.2970E-2                 0  
     301  hru0301                    hru       301     3.8911E-1                 0  
     302  hru0302                    hru       302     6.7389E-2                 0  
     303  hru0303                    hru       303     5.2413E-2                 0  
     304  hru0304                    hru       304     8.3843E-2                 0  
     305  hru0305                    hru       305     2.2592E-2                 0  
     306  hru0306                    hru       306     6.8812E-2                 0  
     307  hru0307                    hru       307     3.6139E-2                 0  
     308  hru0308                    hru       308     5.6068E-2                 0  
     309  hru0309                    hru       309     9.7734E-3                 0  
     310  hru0310                    hru       310     7.5671E-2                 0  
     311  hru0311                    hru       311     8.8645E-2                 0  
     312  hru0312                    hru       312     4.2081E-1                 0  
     313  hru0313                    hru       313     2.1779E-1                 0  
     314  hru0314                    hru       314     1.0161E-1                 0  
     315  hru0315                    hru       315     4.9318E-2                 0  
     316  hru0316                    hru       316     4.6151E-2                 0  
     317  hru0317                    hru       317     9.5257E-2                 0  
     318  hru0318                    hru       318     1.2830E-2                 0  
     319  hru0319                    hru       319     8.5076E-2                 0  
     320  hru0320                    hru       320     1.9123E-2                 0  
     321  hru0321                    hru       321     3.7325E-2                 0  
     322  hru0322                    hru       322     1.4774E-2                 0  
     323  hru0323                    hru       323     4.7045E-2                 0  
     324  hru0324                    hru       324     2.1384E-2                 0  
     325  hru0325                    hru       325     7.8149E-2                 0  
     326  hru0326                    hru       326     2.7994E-2                 0  
     327  hru0327                    hru       327     2.5272E-2                 0  
     328  hru0328                    hru       328     5.6774E-3                 0  
     329  hru0329                    hru       329     3.2036E-2                 0  
     330  hru0330                    hru       330     1.8347E-2                 0  
     331  hru0331                    hru       331     5.5914E-2                 0  
     332  hru0332                    hru       332     2.0218E-2                 0  
     333  hru0333                    hru       333     2.4495E-2                 0  
     334  hru0334                    hru       334     3.2271E-2                 0  
     335  hru0335                    hru       335     1.1286E-1                 0  
     336  hru0336                    hru       336     2.0886E-2                 0  
     337  hru0337                    hru       337     1.8663E-2                 0  
     338  hru0338                    hru       338     5.8320E-3                 0  
     339  hru0339                    hru       339     3.1104E-3                 0  
     340  hru0340                    hru       340     1.5612E-2                 0  
     341  hru0341                    hru       341     5.2040E-2                 0  
     342  hru0342                    hru       342     2.3937E-2                 0  
     343  hru0343                    hru       343     2.2720E-2                 0  
     344  hru0344                    hru       344     7.3872E-3                 0  
     345  hru0345                    hru       345     1.2442E-2                 0  
     346  hru0346                    hru       346     5.4432E-3                 0  
     347  hru0347                    hru       347     1.5149E-2                 0  
     348  hru0348                    hru       348     3.0730E-2                 0  
     349  hru0349                    hru       349     1.2201E-1                 0  
     350  hru0350                    hru       350     7.6609E-2                 0  
     351  hru0351                    hru       351     5.7439E-2                 0  