rout_unit.def: written by SWAT+ editor v2.0.4 on 2021-11-11 16:22
      id              name  elem_tot  elements  
       1           rtu0010         2      8916     -8923  
       2           rtu0020         2      8890     -8905  
       3           rtu0030         2      8958     -8966  
       4           rtu0040         2      8837     -8845  
       5           rtu0050         2      8814     -8836  
       6           rtu0060         2      8756     -8767  
       7           rtu0070         2      6428     -6429  
       8           rtu0080         2      8743     -8755  
       9           rtu0090         2      7958     -7959  
      10           rtu0100         2      6384     -6393  
      11           rtu0110         2      6372     -6377  
      12           rtu0120         2      6362     -6364  
      13           rtu0130         2      6353     -6361  
      14           rtu0140         2      8768     -8770  
      15           rtu0150         2      6345     -6348  
      16           rtu0160         2      9008     -9019  
      17           rtu0170         2      9038     -9044  
      18           rtu0180         2      9031     -9034  
      19           rtu0190         2      1855     -1856  
      20           rtu0200         2      8646     -8656  
      21           rtu0210         2      6334     -6338  
      22           rtu0220         2      8924     -8930  
      23           rtu0230         2      1830     -1832  
      24           rtu0240         2      1807     -1812  
      25           rtu0250         2      8610     -8612  
      26           rtu0260         2      1813     -1817  
      27           rtu0270         2      7960     -7964  
      28           rtu0280         2      7952     -7955  
      29           rtu0290         2      1789     -1793  
      30           rtu0300         2      6349     -6352  
      31           rtu0310         2      7941     -7942  
      32           rtu0320         2      8727     -8738  
      33           rtu0330         2      9036     -9037  
      34           rtu0340         2      7026     -7036  
      35           rtu0350         2      6831     -6842  
      36           rtu0360         2      6818     -6830  
      37           rtu0370         2      6965     -6985  
      38           rtu0380         2      7056     -7082  
      39           rtu0390         2      8951     -8957  
      40           rtu0400         2      1977     -1993  
      41           rtu0410         2      2018     -2022  
      42           rtu0420         2      1975     -1976  
      43           rtu0430         2      8417     -8426  
      44           rtu0440         2      8336     -8342  
      45           rtu0450         2      8309     -8324  
      46           rtu0460         2      8427     -8444  
      47           rtu0470         2      6771     -6781  
      48           rtu0480         2      8410     -8416  
      49           rtu0490         2      8380     -8393  
      50           rtu0500         2      6956     -6964  
      51           rtu0510         2      8170     -8186  
      52           rtu0520         2      6746     -6755  
      53           rtu0530         2      6718     -6724  
      54           rtu0540         2      8146     -8154  
      55           rtu0550         2      8212     -8215  
      56           rtu0560         2      6521     -6524  
      57           rtu0570         2      6500     -6502  
      58           rtu0580         2      8139     -8145  
      59           rtu0590         2      6482     -6484  
      60           rtu0600         2      6480     -6481  
      61           rtu0610         2      8155     -8157  
      62           rtu0620         2      6452     -6457  
      63           rtu0630         2      8162     -8169  
      64           rtu0640         2      6458     -6466  
      65           rtu0650         1      6150  
      66           rtu0660         2      8110     -8120  
      67           rtu0670         2      8012     -8021  
      68           rtu0680         2      7965     -7968  
      69           rtu0690         2      6416     -6422  
      70           rtu0700         2      8097     -8109  
      71           rtu0710         2      6447     -6451  
      72           rtu0720         2      8081     -8096  
      73           rtu0730         2      6439     -6446  
      74           rtu0740         2      7981     -7988  
      75           rtu0750         2      8059     -8068  
      76           rtu0760         2      6412     -6415  
      77           rtu0770         2      7972     -7980  
      78           rtu0780         2      2023     -2025  
      79           rtu0790         2      8363     -8379  
      80           rtu0800         2      8325     -8331  
      81           rtu0810         2      6925     -6934  
      82           rtu0820         2      8194     -8211  
      83           rtu0830         2      8969     -8976  
      84           rtu0840         2      8296     -8308  
      85           rtu0850         2      8967     -8968  
      86           rtu0860         2      8343     -8362  
      87           rtu0870         2      1927     -1930  
      88           rtu0880         2      1994     -1997  
      89           rtu0890         2      2166     -2168  
      90           rtu0900         2      6610     -6623  
      91           rtu0910         2      6680     -6702  
      92           rtu0920         2      8187     -8193  
      93           rtu0930         2      1954     -1958  
      94           rtu0940         2      8216     -8223  
      95           rtu0950         2      1922     -1926  
      96           rtu0960         2      8494     -8500  
      97           rtu0970         2      2102     -2107  
      98           rtu0980         2      6707     -6717  
      99           rtu0990         2      8515     -8520  
     100           rtu1000         2      6876     -6877  
     101           rtu1010         2      1933     -1936  
     102           rtu1020         2      1888     -1892  
     103           rtu1030         2      6803     -6810  
     104           rtu1040         2      6540     -6546  
     105           rtu1050         2      8290     -8295  
     106           rtu1060         2      7037     -7044  
     107           rtu1070         2      8521     -8526  
     108           rtu1080         2      8906     -8915  
     109           rtu1090         2      8474     -8482  
     110           rtu1100         2      1912     -1915  
     111           rtu1110         2      2095     -2098  
     112           rtu1120         2      8501     -8506  
     113           rtu1130         2      7083     -7087  
     114           rtu1140         2      6725     -6734  
     115           rtu1150         2      6843     -6851  
     116           rtu1160         2      1916     -1921  
     117           rtu1170         2      1857     -1862  
     118           rtu1180         2      2003     -2010  
     119           rtu1190         2      8571     -8578  
     120           rtu1200         2      8468     -8469  
     121           rtu1210         2      6703     -6706  
     122           rtu1220         2      7045     -7046  
     123           rtu1230         2      1950     -1953  
     124           rtu1240         2      6935     -6955  
     125           rtu1250         2      1897     -1899  
     126           rtu1260         2      8507     -8514  
     127           rtu1270         2      6467     -6470  
     128           rtu1280         2      6782     -6786  
     129           rtu1290         2      2068     -2075  
     130           rtu1300         2      6525     -6532  
     131           rtu1310         2      6495     -6496  
     132           rtu1320         2      6871     -6875  
     133           rtu1330         2      6740     -6745  
     134           rtu1340         2      2031     -2035  
     135           rtu1350         2      6589     -6590  
     136           rtu1360         2      6579     -6580  
     137           rtu1370         2      8540     -8549  
     138           rtu1380         2      1970     -1974  
     139           rtu1390         2      6535     -6539  
     140           rtu1400         2      6497     -6499  
     141           rtu1410         2      6485     -6494  
     142           rtu1420         1      1887  
     143           rtu1430         2      8332     -8335  
     144           rtu1440         2      7206     -7215  
     145           rtu1450         2      2686     -2696  
     146           rtu1460         2      2601     -2608  
     147           rtu1470         2      7224     -7227  
     148           rtu1480         2      7201     -7205  
     149           rtu1490         2      2663     -2670  
     150           rtu1500         2      2590     -2600  
     151           rtu1510         2      2536     -2545  
     152           rtu1520         2      2429     -2438  
     153           rtu1530         2      2352     -2370  
     154           rtu1540         2      2295     -2300  
     155           rtu1550         2      2239     -2245  
     156           rtu1560         2      2697     -2707  
     157           rtu1570         2      2585     -2589  
     158           rtu1580         2      2647     -2649  
     159           rtu1590         2      2336     -2344  
     160           rtu1600         2      2308     -2314  
     161           rtu1610         2      2229     -2232  
     162           rtu1620         2      2112     -2116  
     163           rtu1630         2      7262     -7267  
     164           rtu1640         2      5542     -5551  
     165           rtu1650         2      2108     -2111  
     166           rtu1660         2      2199     -2202  
     167           rtu1670         2      2083     -2087  
     168           rtu1680         2      7155     -7162  
     169           rtu1690         2      7088     -7093  
     170           rtu1700         2      2158     -2165  
     171           rtu1710         2      7126     -7130  
     172           rtu1720         2      6787     -6800  
     173           rtu1730         2      2076     -2082  
     174           rtu1740         2      7047     -7048  
     175           rtu1750         2      7184     -7188  
     176           rtu1760         2      7246     -7252  
     177           rtu1770         2      7371     -7382  
     178           rtu1780         2      7309     -7316  
     179           rtu1790         2      7443     -7450  
     180           rtu1800         2      7268     -7271  
     181           rtu1810         2      7435     -7436  
     182           rtu1820         2      5395     -5405  
     183           rtu1830         2      7451     -7454  
     184           rtu1840         2      5606     -5611  
     185           rtu1850         2      5600     -5603  
     186           rtu1860         2      7689     -7698  
     187           rtu1870         2      6240     -6252  
     188           rtu1880         2      6031     -6044  
     189           rtu1890         2      7480     -7493  
     190           rtu1900         2      7742     -7745  
     191           rtu1910         2      2546     -2547  
     192           rtu1920         2      7699     -7711  
     193           rtu1930         2      7733     -7741  
     194           rtu1940         2      6253     -6261  
     195           rtu1950         2      6012     -6030  
     196           rtu1960         2      7612     -7634  
     197           rtu1970         2      5384     -5394  
     198           rtu1980         2      5999     -6011  
     199           rtu1990         2      5350     -5356  
     200           rtu2000         2      7814     -7823  
     201           rtu2010         2      2396     -2403  
     202           rtu2020         2      5414     -5415  
     203           rtu2030         2      2570     -2578  
     204           rtu2040         2      7291     -7297  
     205           rtu2050         2      2325     -2329  
     206           rtu2060         2      2413     -2416  
     207           rtu2070         2      7864     -7874  
     208           rtu2080         2      7793     -7799  
     209           rtu2090         2      7517     -7532  
     210           rtu2100         2      7647     -7683  
     211           rtu2110         2      7317     -7330  
     212           rtu2120         2      6114     -6129  
     213           rtu2130         2      5482     -5494  
     214           rtu2140         2      7824     -7832  
     215           rtu2150         2      7412     -7413  
     216           rtu2160         2      5988     -5998  
     217           rtu2170         2      5496     -5502  
     218           rtu2180         2      6233     -6239  
     219           rtu2190         2      7455     -7479  
     220           rtu2200         2      2481     -2487  
     221           rtu2210         2      2460     -2463  
     222           rtu2220         2      6209     -6215  
     223           rtu2230         2      5438     -5449  
     224           rtu2240         2      6130     -6138  
     225           rtu2250         2      7216     -7223  
     226           rtu2260         2      5480     -5481  
     227           rtu2270         2      2494     -2498  
     228           rtu2280         2      7730     -7732  
     229           rtu2290         2      5347     -5349  
     230           rtu2300         2      7414     -7422  
     231           rtu2310         2      7283     -7290  
     232           rtu2320         2      6045     -6051  
     233           rtu2330         2      7423     -7434  
     234           rtu2340         2      5477     -5478  
     235           rtu2350         2      5519     -5541  
     236           rtu2360         2      5559     -5563  
     237           rtu2370         1      5479  
     238           rtu2380         2      7930     -7937  
     239           rtu2390         2      2511     -2514  
     240           rtu2400         1      5410  
     241           rtu2410         2      7928     -7929  
     242           rtu2420         2      2455     -2459  
     243           rtu2430         2      5406     -5409  
     244           rtu2440         2      2439     -2454  
     245           rtu2450         2      7875     -7885  
     246           rtu2460         2      2371     -2373  
     247           rtu2470         2      2345     -2351  
     248           rtu2480         2      7642     -7646  
     249           rtu2490         2      6082     -6105  
     250           rtu2500         2      2283     -2289  
     251           rtu2510         2      2290     -2294  
     252           rtu2520         2      7533     -7543  
     253           rtu2530         2      2208     -2218  
     254           rtu2540         2      7298     -7308  
     255           rtu2550         2      6196     -6208  
     256           rtu2560         2      3282     -3303  
     257           rtu2570         2      3202     -3212  
     258           rtu2580         2      3186     -3190  
     259           rtu2590         2      3161     -3163  
     260           rtu2600         2      3031     -3036  
     261           rtu2610         2      2979     -2984  
     262           rtu2620         2      2883     -2906  
     263           rtu2630         2      3533     -3551  
     264           rtu2640         2      3596     -3599  
     265           rtu2650         2      2927     -2933  
     266           rtu2660         2      2919     -2926  
     267           rtu2670         2      2845     -2852  
     268           rtu2680         2      2744     -2767  
     269           rtu2690         2      5810     -5822  
     270           rtu2700         2      5564     -5573  
     271           rtu2710         2      5719     -5730  
     272           rtu2720         2      2853     -2862  
     273           rtu2730         2      2863     -2869  
     274           rtu2740         2      5004     -5013  
     275           rtu2750         2      2813     -2814  
     276           rtu2760         2      4967     -4980  
     277           rtu2770         2      4677     -4693  
     278           rtu2780         2      4609     -4616  
     279           rtu2790         2      3382     -3386  
     280           rtu2800         2      4617     -4630  
     281           rtu2810         2      3488     -3501  
     282           rtu2820         2      3387     -3402  
     283           rtu2830         2      2728     -2739  
     284           rtu2840         2      5915     -5921  
     285           rtu2850         2      3342     -3349  
     286           rtu2860         2      4455     -4474  
     287           rtu2870         2      3414     -3429  
     288           rtu2880         2      5922     -5928  
     289           rtu2890         2      3403     -3413  
     290           rtu2900         2      5852     -5859  
     291           rtu2910         2      4363     -4371  
     292           rtu2920         2      4379     -4383  
     293           rtu2930         2      5823     -5825  
     294           rtu2940         2      5688     -5696  
     295           rtu2950         2      5776     -5790  
     296           rtu2960         2      5740     -5741  
     297           rtu2970         2      5769     -5775  
     298           rtu2980         2      5552     -5558  
     299           rtu2990         2      5717     -5718  
     300           rtu3000         2      2776     -2787  
     301           rtu3010         2      5697     -5706  
     302           rtu3020         2      4302     -4308  
     303           rtu3030         2      5604     -5605  
     304           rtu3040         2      5622     -5637  
     305           rtu3050         2      2650     -2662  
     306           rtu3060         1      5495  
     307           rtu3070         2      5598     -5599  
     308           rtu3080         2      3350     -3355  
     309           rtu3090         2      3247     -3256  
     310           rtu3100         2      3257     -3265  
     311           rtu3110         2      5014     -5022  
     312           rtu3120         2      4981     -4998  
     313           rtu3130         2      3020     -3030  
     314           rtu3140         2      4809     -4823  
     315           rtu3150         2      3139     -3148  
     316           rtu3160         2      2947     -2953  
     317           rtu3170         2      2968     -2978  
     318           rtu3180         2      4736     -4748  
     319           rtu3190         2      4550     -4575  
     320           rtu3200         2      4824     -4834  
     321           rtu3210         2      2912     -2918  
     322           rtu3220         2      4600     -4608  
     323           rtu3230         2      3430     -3437  
     324           rtu3240         2      3191     -3198  
     325           rtu3250         2      4581     -4599  
     326           rtu3260         2      2836     -2844  
     327           rtu3270         2      2815     -2821  
     328           rtu3280         2      3266     -3281  
     329           rtu3290         2      5293     -5297  
     330           rtu3300         2      4893     -4903  
     331           rtu3310         2      2870     -2875  
     332           rtu3320         2      5247     -5260  
     333           rtu3330         2      4524     -4534  
     334           rtu3340         2      5945     -5951  
     335           rtu3350         2      3304     -3315  
     336           rtu3360         2      5929     -5937  
     337           rtu3370         2      4944     -4953  
     338           rtu3380         2      4999     -5003  
     339           rtu3390         2      2999     -3010  
     340           rtu3400         2      2964     -2967  
     341           rtu3410         2      3316     -3329  
     342           rtu3420         2      2876     -2882  
     343           rtu3430         2      5266     -5273  
     344           rtu3440         2      4954     -4966  
     345           rtu3450         2      5300     -5306  
     346           rtu3460         2      4864     -4871  
     347           rtu3470         2      3011     -3013  
     348           rtu3480         2      4855     -4863  
     349           rtu3490         2      4314     -4317  
     350           rtu3500         2      2954     -2959  
     351           rtu3510         2      4415     -4416  
     352           rtu3520         2      3129     -3138  
     353           rtu3530         2      3077     -3087  
     354           rtu3540         2      4726     -4735  
     355           rtu3550         2      3330     -3341  
     356           rtu3560         2       938      -941  
     357           rtu3570         2      3156     -3160  
     358           rtu3580         2      4665     -4676  
     359           rtu3590         2      4647     -4664  
     360           rtu3600         2      3063     -3068  
     361           rtu3610         2      4579     -4580  
     362           rtu3620         2      2991     -2998  
     363           rtu3630         2      5298     -5299  
     364           rtu3640         2      2960     -2963  
     365           rtu3650         2      5826     -5830  
     366           rtu3660         2      4384     -4395  
     367           rtu3670         2      4267     -4272  
     368           rtu3680         2      4253     -4266  
     369           rtu3690         2      4003     -4009  
     370           rtu3700         2      3901     -3911  
     371           rtu3710         2      3769     -3779  
     372           rtu3720         2      3780     -3795  
     373           rtu3730         2      3759     -3768  
     374           rtu3740         2      3636     -3652  
     375           rtu3750         2      3653     -3657  
     376           rtu3760         2      3828     -3831  
     377           rtu3770         2      3832     -3841  
     378           rtu3780         2      3811     -3827  
     379           rtu3790         2      3799     -3810  
     380           rtu3800         2      3934     -3943  
     381           rtu3810         2      3853     -3865  
     382           rtu3820         2      4065     -4072  
     383           rtu3830         2      4010     -4023  
     384           rtu3840         2      3866     -3870  
     385           rtu3850         2      3996     -4002  
     386           rtu3860         2      3927     -3933  
     387           rtu3870         2      3842     -3852  
     388           rtu3880         2      5168     -5178  
     389           rtu3890         2      3219     -3242  
     390           rtu3900         2      1039     -1045  
     391           rtu3910         2      3944     -3953  
     392           rtu3920         2      5161     -5167  
     393           rtu3930         2      5120     -5128  
     394           rtu3940         2      3725     -3731  
     395           rtu3950         2      3572     -3576  
     396           rtu3960         2      5038     -5048  
     397           rtu3970         2      3577     -3584  
     398           rtu3980         2       723      -724  
     399           rtu3990         2      1509     -1518  
     400           rtu4000         2      1574     -1579  
     401           rtu4010         2      3989     -3995  
     402           rtu4020         2      3984     -3988  
     403           rtu4030         2      1556     -1564  
     404           rtu4040         2      3891     -3900  
     405           rtu4050         2       580      -592  
     406           rtu4060         2      3912     -3926  
     407           rtu4070         2      4088     -4092  
     408           rtu4080         2       573      -579  
     409           rtu4090         2      1701     -1705  
     410           rtu4100         2      1542     -1548  
     411           rtu4110         2       543      -554  
     412           rtu4120         2      1529     -1541  
     413           rtu4130         2       532      -542  
     414           rtu4140         2      4075     -4087  
     415           rtu4150         2      1519     -1528  
     416           rtu4160         2       770      -774  
     417           rtu4170         2      1669     -1672  
     418           rtu4180         2      1706     -1709  
     419           rtu4190         2      4073     -4074  
     420           rtu4200         2      1763     -1788  
     421           rtu4210         2      4124     -4132  
     422           rtu4220         2      1462     -1475  
     423           rtu4230         2      1632     -1636  
     424           rtu4240         2      5179     -5186  
     425           rtu4250         2      4093     -4104  
     426           rtu4260         2      1683     -1685  
     427           rtu4270         2      4112     -4118  
     428           rtu4280         2      3611     -3616  
     429           rtu4290         2      3796     -3798  
     430           rtu4300         2       458      -469  
     431           rtu4310         2      3954     -3966  
     432           rtu4320         2      5146     -5160  
     433           rtu4330         2      1686     -1688  
     434           rtu4340         2      4024     -4032  
     435           rtu4350         2      4213     -4219  
     436           rtu4360         2      3693     -3724  
     437           rtu4370         2      1294     -1297  
     438           rtu4380         2      1225     -1230  
     439           rtu4390         2      1402     -1408  
     440           rtu4400         2      3745     -3758  
     441           rtu4410         2      1673     -1682  
     442           rtu4420         2      4195     -4204  
     443           rtu4430         2      1421     -1442  
     444           rtu4440         2       999     -1011  
     445           rtu4450         2      4205     -4212  
     446           rtu4460         2      1213     -1218  
     447           rtu4470         2      1012     -1017  
     448           rtu4480         2      1187     -1194  
     449           rtu4490         2      1621     -1631  
     450           rtu4500         2      4119     -4123  
     451           rtu4510         2      4105     -4111  
     452           rtu4520         2      1409     -1420  
     453           rtu4530         2       991      -998  
     454           rtu4540         2      1384     -1401  
     455           rtu4550         2      3607     -3610  
     456           rtu4560         2      3732     -3744  
     457           rtu4570         2      1147     -1151  
     458           rtu4580         2      1046     -1063  
     459           rtu4590         2      1064     -1083  
     460           rtu4600         2       923      -937  
     461           rtu4610         2       899      -922  
     462           rtu4620         2       850      -857  
     463           rtu4630         2       887      -898  
     464           rtu4640         2       775      -788  
     465           rtu4650         2      1596     -1613  
     466           rtu4660         2      1324     -1331  
     467           rtu4670         2      1279     -1293  
     468           rtu4680         2      1614     -1620  
     469           rtu4690         2       725      -733  
     470           rtu4700         2      1710     -1715  
     471           rtu4710         2      1195     -1212  
     472           rtu4720         2       220      -227  
     473           rtu4730         2       234      -242  
     474           rtu4740         2       228      -233  
     475           rtu4750         2       401      -407  
     476           rtu4760         2       858      -875  
     477           rtu4770         2       349      -358  
     478           rtu4780         2       359      -372  
     479           rtu4790         2       835      -841  
     480           rtu4800         2       383      -392  
     481           rtu4810         2       802      -814  
     482           rtu4820         2       373      -382  
     483           rtu4830         2       299      -309  
     484           rtu4840         2       146      -171  
     485           rtu4850         2       815      -822  
     486           rtu4860         2       179      -185  
     487           rtu4870         2       310      -316  
     488           rtu4880         2       123      -133  
     489           rtu4890         2        57       -62  
     490           rtu4900         2      1090     -1108  
     491           rtu4910         2       103      -115  
     492           rtu4920         2       243      -262  
     493           rtu4930         2       172      -178  
     494           rtu4940         2       116      -122  
     495           rtu4950         2      1109     -1125  
     496           rtu4960         2      1298     -1308  
     497           rtu4970         2       424      -434  
     498           rtu4980         2       470      -480  
     499           rtu4990         2       789      -801  
     500           rtu5000         2       761      -769  
     501           rtu5010         1      5574  
     502           rtu5020         2      5517     -5518  
     503           rtu5030         2         1       -15  
     504           rtu5040         2        16       -27  
     505           rtu5050         2        28       -37  
     506           rtu5060         2        63       -86  
     507           rtu5070         2        50       -56  