topography.hyd: written by SWAT+ editor v2.0.4 on 2021-11-11 16:22
name                       slp       slp_len       lat_len      dist_cha         depos  
topohru0001            0.24066      10.00000      10.00000     121.00000       0.00000  
topohru0002            0.05291      30.00000      30.00000     121.00000       0.00000  
topohru0003            0.05398      30.00000      30.00000     121.00000       0.00000  
topohru0004            0.17241      10.00000      10.00000     121.00000       0.00000  
topohru0005            0.09759      10.00000      10.00000     121.00000       0.00000  
topohru0006            0.04898      60.00000      60.00000     121.00000       0.00000  
topohru0007            0.05407      30.00000      30.00000     121.00000       0.00000  
topohru0008            0.22739      10.00000      10.00000     121.00000       0.00000  
topohru0009            0.05168      30.00000      30.00000     121.00000       0.00000  
topohru0010            0.18848      10.00000      10.00000     121.00000       0.00000  
topohru0011            0.17545      10.00000      10.00000     121.00000       0.00000  
topohru0012            0.05285      30.00000      30.00000     121.00000       0.00000  
topohru0013            0.05045      30.00000      30.00000     121.00000       0.00000  
topohru0014            0.00878     121.00000     121.00000     121.00000       0.00000  
topohru0015            0.12219      10.00000      10.00000     121.00000       0.00000  
topohru0016            0.31768      10.00000      10.00000     121.00000       0.00000  
topohru0017            0.05142      30.00000      30.00000     121.00000       0.00000  
topohru0018            0.25296      10.00000      10.00000     121.00000       0.00000  
topohru0019            0.12969      10.00000      10.00000     121.00000       0.00000  
topohru0020            0.04777      60.00000      60.00000     121.00000       0.00000  
topohru0021            0.11863      10.00000      10.00000     121.00000       0.00000  
topohru0022            0.04181      60.00000      60.00000     121.00000       0.00000  
topohru0023            0.01116      90.00000      90.00000     121.00000       0.00000  
topohru0024            0.03550      60.00000      60.00000     121.00000       0.00000  
topohru0025            0.01663      90.00000      90.00000     121.00000       0.00000  
topohru0026            0.01139      90.00000      90.00000     121.00000       0.00000  
topohru0027            0.03367      60.00000      60.00000     121.00000       0.00000  
topohru0028            0.36144      10.00000      10.00000     121.00000       0.00000  
topohru0029            0.27324      10.00000      10.00000     121.00000       0.00000  
topohru0030            0.12700      10.00000      10.00000     121.00000       0.00000  
topohru0031            0.05243      30.00000      30.00000     121.00000       0.00000  
topohru0032            0.00663     121.00000     121.00000     121.00000       0.00000  
topohru0033            0.16416      10.00000      10.00000     121.00000       0.00000  
topohru0034            0.01257      90.00000      90.00000     121.00000       0.00000  
topohru0035            0.04349      60.00000      60.00000     121.00000       0.00000  
topohru0036            0.18828      10.00000      10.00000     121.00000       0.00000  
topohru0037            0.06145      30.00000      30.00000     121.00000       0.00000  
topohru0038            0.43441      10.00000      10.00000     121.00000       0.00000  
topohru0039            0.36657      10.00000      10.00000     121.00000       0.00000  
topohru0040            0.18285      10.00000      10.00000     121.00000       0.00000  
topohru0041            0.00141     121.00000     121.00000     121.00000       0.00000  
topohru0042            0.05235      30.00000      30.00000     121.00000       0.00000  
topohru0043            0.37268      10.00000      10.00000     121.00000       0.00000  
topohru0044            0.20573      10.00000      10.00000     121.00000       0.00000  
topohru0045            0.05111      30.00000      30.00000     121.00000       0.00000  
topohru0046            0.00278     121.00000     121.00000     121.00000       0.00000  
topohru0047            0.31970      10.00000      10.00000     121.00000       0.00000  
topohru0048            0.19728      10.00000      10.00000     121.00000       0.00000  
topohru0049            0.05194      30.00000      30.00000     121.00000       0.00000  
topohru0050            0.34961      10.00000      10.00000     121.00000       0.00000  
topohru0051            0.33798      10.00000      10.00000     121.00000       0.00000  
topohru0052            0.31426      10.00000      10.00000     121.00000       0.00000  
topohru0053            0.31808      10.00000      10.00000     121.00000       0.00000  
topohru0054            0.25021      10.00000      10.00000     121.00000       0.00000  
topohru0055            0.05055      30.00000      30.00000     121.00000       0.00000  
topohru0056            0.24530      10.00000      10.00000     121.00000       0.00000  
topohru0057            0.30507      10.00000      10.00000     121.00000       0.00000  
topohru0058            0.27739      10.00000      10.00000     121.00000       0.00000  
topohru0059            0.20087      10.00000      10.00000     121.00000       0.00000  
topohru0060            0.24379      10.00000      10.00000     121.00000       0.00000  
topohru0061            0.26103      10.00000      10.00000     121.00000       0.00000  
topohru0062            0.25847      10.00000      10.00000     121.00000       0.00000  
topohru0063            0.25398      10.00000      10.00000     121.00000       0.00000  
topohru0064            0.13748      10.00000      10.00000     121.00000       0.00000  
topohru0065            0.04696      60.00000      60.00000     121.00000       0.00000  
topohru0066            0.13635      10.00000      10.00000     121.00000       0.00000  
topohru0067            0.05266      30.00000      30.00000     121.00000       0.00000  
topohru0068            0.03757      60.00000      60.00000     121.00000       0.00000  
topohru0069            0.01133      90.00000      90.00000     121.00000       0.00000  
topohru0070            0.24953      10.00000      10.00000     121.00000       0.00000  
topohru0071            0.33600      10.00000      10.00000     121.00000       0.00000  
topohru0072            0.17164      10.00000      10.00000     121.00000       0.00000  
topohru0073            0.05380      30.00000      30.00000     121.00000       0.00000  
topohru0074            0.04845      60.00000      60.00000     121.00000       0.00000  
topohru0075            0.10418      10.00000      10.00000     121.00000       0.00000  
topohru0076            0.04035      60.00000      60.00000     121.00000       0.00000  
topohru0077            0.01149      90.00000      90.00000     121.00000       0.00000  
topohru0078            0.04277      60.00000      60.00000     121.00000       0.00000  
topohru0079            0.01028      90.00000      90.00000     121.00000       0.00000  
topohru0080            0.03118      60.00000      60.00000     121.00000       0.00000  
topohru0081            0.01246      90.00000      90.00000     121.00000       0.00000  
topohru0082            0.11784      10.00000      10.00000     121.00000       0.00000  
topohru0083            0.01188      90.00000      90.00000     121.00000       0.00000  
topohru0084            0.04030      60.00000      60.00000     121.00000       0.00000  
topohru0085            0.03532      60.00000      60.00000     121.00000       0.00000  
topohru0086            0.01199      90.00000      90.00000     121.00000       0.00000  
topohru0087            0.03341      60.00000      60.00000     121.00000       0.00000  
topohru0088            0.01273      90.00000      90.00000     121.00000       0.00000  
topohru0089            0.03251      60.00000      60.00000     121.00000       0.00000  
topohru0090            0.01268      90.00000      90.00000     121.00000       0.00000  
topohru0091            0.03477      60.00000      60.00000     121.00000       0.00000  
topohru0092            0.01051      90.00000      90.00000     121.00000       0.00000  
topohru0093            0.01354      90.00000      90.00000     121.00000       0.00000  
topohru0094            0.02943      90.00000      90.00000     121.00000       0.00000  
topohru0095            0.03880      60.00000      60.00000     121.00000       0.00000  
topohru0096            0.01080      90.00000      90.00000     121.00000       0.00000  
topohru0097            0.03296      60.00000      60.00000     121.00000       0.00000  
topohru0098            0.00754     121.00000     121.00000     121.00000       0.00000  
topohru0099            0.03774      60.00000      60.00000     121.00000       0.00000  
topohru0100            0.01379      90.00000      90.00000     121.00000       0.00000  
topohru0101            0.03331      60.00000      60.00000     121.00000       0.00000  
topohru0102            0.01112      90.00000      90.00000     121.00000       0.00000  
topohru0103            0.27301      10.00000      10.00000     121.00000       0.00000  
topohru0104            0.11682      10.00000      10.00000     121.00000       0.00000  
topohru0105            0.04936      60.00000      60.00000     121.00000       0.00000  
topohru0106            0.03505      60.00000      60.00000     121.00000       0.00000  
topohru0107            0.01138      90.00000      90.00000     121.00000       0.00000  
topohru0108            0.03444      60.00000      60.00000     121.00000       0.00000  
topohru0109            0.01189      90.00000      90.00000     121.00000       0.00000  
topohru0110            0.01294      90.00000      90.00000     121.00000       0.00000  
topohru0111            0.03051      60.00000      60.00000     121.00000       0.00000  
topohru0112            0.03117      60.00000      60.00000     121.00000       0.00000  
topohru0113            0.01253      90.00000      90.00000     121.00000       0.00000  
topohru0114            0.01164      90.00000      90.00000     121.00000       0.00000  
topohru0115            0.02970      90.00000      90.00000     121.00000       0.00000  
topohru0116            0.47923      10.00000      10.00000     121.00000       0.00000  
topohru0117            0.38002      10.00000      10.00000     121.00000       0.00000  
topohru0118            0.39739      10.00000      10.00000     121.00000       0.00000  
topohru0119            0.05314      30.00000      30.00000     121.00000       0.00000  
topohru0120            0.20252      10.00000      10.00000     121.00000       0.00000  
topohru0121            0.16820      10.00000      10.00000     121.00000       0.00000  
topohru0122            0.05155      30.00000      30.00000     121.00000       0.00000  
topohru0123            0.30588      10.00000      10.00000     121.00000       0.00000  
topohru0124            0.26104      10.00000      10.00000     121.00000       0.00000  
topohru0125            0.26319      10.00000      10.00000     121.00000       0.00000  
topohru0126            0.38371      10.00000      10.00000     121.00000       0.00000  
topohru0127            0.14206      10.00000      10.00000     121.00000       0.00000  
topohru0128            0.05376      30.00000      30.00000     121.00000       0.00000  
topohru0129            0.18195      10.00000      10.00000     121.00000       0.00000  
topohru0130            0.05803      30.00000      30.00000     121.00000       0.00000  
topohru0131            0.05297      30.00000      30.00000     121.00000       0.00000  
topohru0132            0.15469      10.00000      10.00000     121.00000       0.00000  
topohru0133            0.33446      10.00000      10.00000     121.00000       0.00000  
topohru0134            0.30995      10.00000      10.00000     121.00000       0.00000  
topohru0135            0.36737      10.00000      10.00000     121.00000       0.00000  
topohru0136            0.19015      10.00000      10.00000     121.00000       0.00000  
topohru0137            0.05286      30.00000      30.00000     121.00000       0.00000  
topohru0138            0.04150      60.00000      60.00000     121.00000       0.00000  
topohru0139            0.01179      90.00000      90.00000     121.00000       0.00000  
topohru0140            0.19588      10.00000      10.00000     121.00000       0.00000  
topohru0141            0.04676      60.00000      60.00000     121.00000       0.00000  
topohru0142            0.30579      10.00000      10.00000     121.00000       0.00000  
topohru0143            0.13790      10.00000      10.00000     121.00000       0.00000  
topohru0144            0.04483      60.00000      60.00000     121.00000       0.00000  
topohru0145            0.04151      60.00000      60.00000     121.00000       0.00000  
topohru0146            0.29488      10.00000      10.00000     121.00000       0.00000  
topohru0147            0.19592      10.00000      10.00000     121.00000       0.00000  
topohru0148            0.18083      10.00000      10.00000     121.00000       0.00000  
topohru0149            0.04658      60.00000      60.00000     121.00000       0.00000  
topohru0150            0.01643      90.00000      90.00000     121.00000       0.00000  
topohru0151            0.09926      10.00000      10.00000     121.00000       0.00000  
topohru0152            0.04651      60.00000      60.00000     121.00000       0.00000  
topohru0153            0.01044      90.00000      90.00000     121.00000       0.00000  
topohru0154            0.17704      10.00000      10.00000     121.00000       0.00000  
topohru0155            0.05050      30.00000      30.00000     121.00000       0.00000  
topohru0156            0.14509      10.00000      10.00000     121.00000       0.00000  
topohru0157            0.01147      90.00000      90.00000     121.00000       0.00000  
topohru0158            0.04124      60.00000      60.00000     121.00000       0.00000  
topohru0159            0.13934      10.00000      10.00000     121.00000       0.00000  
topohru0160            0.05827      30.00000      30.00000     121.00000       0.00000  
topohru0161            0.20782      10.00000      10.00000     121.00000       0.00000  
topohru0162            0.06979      30.00000      30.00000     121.00000       0.00000  
topohru0163            0.21349      10.00000      10.00000     121.00000       0.00000  
topohru0164            0.20935      10.00000      10.00000     121.00000       0.00000  
topohru0165            0.29255      10.00000      10.00000     121.00000       0.00000  
topohru0166            0.12443      10.00000      10.00000     121.00000       0.00000  
topohru0167            0.05238      30.00000      30.00000     121.00000       0.00000  
topohru0168            0.00590     121.00000     121.00000     121.00000       0.00000  
topohru0169            0.03674      60.00000      60.00000     121.00000       0.00000  
topohru0170            0.00918     121.00000     121.00000     121.00000       0.00000  
topohru0171            0.14652      10.00000      10.00000     121.00000       0.00000  
topohru0172            0.40426      10.00000      10.00000     121.00000       0.00000  
topohru0173            0.42996      10.00000      10.00000     121.00000       0.00000  
topohru0174            0.30845      10.00000      10.00000     121.00000       0.00000  
topohru0175            0.32997      10.00000      10.00000     121.00000       0.00000  
topohru0176            0.32224      10.00000      10.00000     121.00000       0.00000  
topohru0177            0.21940      10.00000      10.00000     121.00000       0.00000  
topohru0178            0.04798      60.00000      60.00000     121.00000       0.00000  
topohru0179            0.04016      60.00000      60.00000     121.00000       0.00000  
topohru0180            0.00955     121.00000     121.00000     121.00000       0.00000  
topohru0181            0.01136      90.00000      90.00000     121.00000       0.00000  
topohru0182            0.03597      60.00000      60.00000     121.00000       0.00000  
topohru0183            0.36589      10.00000      10.00000     121.00000       0.00000  
topohru0184            0.03612      60.00000      60.00000     121.00000       0.00000  
topohru0185            0.01209      90.00000      90.00000     121.00000       0.00000  
topohru0186            0.04069      60.00000      60.00000     121.00000       0.00000  
topohru0187            0.01260      90.00000      90.00000     121.00000       0.00000  
topohru0188            0.01101      90.00000      90.00000     121.00000       0.00000  
topohru0189            0.03576      60.00000      60.00000     121.00000       0.00000  
topohru0190            0.03556      60.00000      60.00000     121.00000       0.00000  
topohru0191            0.01232      90.00000      90.00000     121.00000       0.00000  
topohru0192            0.04082      60.00000      60.00000     121.00000       0.00000  
topohru0193            0.01090      90.00000      90.00000     121.00000       0.00000  
topohru0194            0.01155      90.00000      90.00000     121.00000       0.00000  
topohru0195            0.03508      60.00000      60.00000     121.00000       0.00000  
topohru0196            0.00962     121.00000     121.00000     121.00000       0.00000  
topohru0197            0.04240      60.00000      60.00000     121.00000       0.00000  
topohru0198            0.39012      10.00000      10.00000     121.00000       0.00000  
topohru0199            0.29105      10.00000      10.00000     121.00000       0.00000  
topohru0200            0.45911      10.00000      10.00000     121.00000       0.00000  
topohru0201            0.27117      10.00000      10.00000     121.00000       0.00000  
topohru0202            0.40444      10.00000      10.00000     121.00000       0.00000  
topohru0203            0.26607      10.00000      10.00000     121.00000       0.00000  
topohru0204            0.21382      10.00000      10.00000     121.00000       0.00000  
topohru0205            0.04981      60.00000      60.00000     121.00000       0.00000  
topohru0206            0.18762      10.00000      10.00000     121.00000       0.00000  
topohru0207            0.15530      10.00000      10.00000     121.00000       0.00000  
topohru0208            0.05222      30.00000      30.00000     121.00000       0.00000  
topohru0209            0.01166      90.00000      90.00000     121.00000       0.00000  
topohru0210            0.04365      60.00000      60.00000     121.00000       0.00000  
topohru0211            0.12283      10.00000      10.00000     121.00000       0.00000  
topohru0212            0.01108      90.00000      90.00000     121.00000       0.00000  
topohru0213            0.04343      60.00000      60.00000     121.00000       0.00000  
topohru0214            0.11492      10.00000      10.00000     121.00000       0.00000  
topohru0215            0.04319      60.00000      60.00000     121.00000       0.00000  
topohru0216            0.01103      90.00000      90.00000     121.00000       0.00000  
topohru0217            0.11582      10.00000      10.00000     121.00000       0.00000  
topohru0218            0.05153      30.00000      30.00000     121.00000       0.00000  
topohru0219            0.01948      90.00000      90.00000     121.00000       0.00000  
topohru0220            0.04184      60.00000      60.00000     121.00000       0.00000  
topohru0221            0.01051      90.00000      90.00000     121.00000       0.00000  
topohru0222            0.04110      60.00000      60.00000     121.00000       0.00000  
topohru0223            0.00930     121.00000     121.00000     121.00000       0.00000  
topohru0224            0.03779      60.00000      60.00000     121.00000       0.00000  
topohru0225            0.01202      90.00000      90.00000     121.00000       0.00000  
topohru0226            0.01065      90.00000      90.00000     121.00000       0.00000  
topohru0227            0.03534      60.00000      60.00000     121.00000       0.00000  
topohru0228            0.04103      60.00000      60.00000     121.00000       0.00000  
topohru0229            0.00972     121.00000     121.00000     121.00000       0.00000  
topohru0230            0.04369      60.00000      60.00000     121.00000       0.00000  
topohru0231            0.00978     121.00000     121.00000     121.00000       0.00000  
topohru0232            0.04330      60.00000      60.00000     121.00000       0.00000  
topohru0233            0.01488      90.00000      90.00000     121.00000       0.00000  
topohru0234            0.05401      30.00000      30.00000     121.00000       0.00000  
topohru0235            0.04065      60.00000      60.00000     121.00000       0.00000  
topohru0236            0.00786     121.00000     121.00000     121.00000       0.00000  
topohru0237            0.04354      60.00000      60.00000     121.00000       0.00000  
topohru0238            0.01853      90.00000      90.00000     121.00000       0.00000  
topohru0239            0.03966      60.00000      60.00000     121.00000       0.00000  
topohru0240            0.01298      90.00000      90.00000     121.00000       0.00000  
topohru0241            0.03672      60.00000      60.00000     121.00000       0.00000  
topohru0242            0.00470     121.00000     121.00000     121.00000       0.00000  
topohru0243            0.13796      10.00000      10.00000     121.00000       0.00000  
topohru0244            0.04490      60.00000      60.00000     121.00000       0.00000  
topohru0245            0.01051      90.00000      90.00000     121.00000       0.00000  
topohru0246            0.10958      10.00000      10.00000     121.00000       0.00000  
topohru0247            0.04962      60.00000      60.00000     121.00000       0.00000  
topohru0248            0.00960     121.00000     121.00000     121.00000       0.00000  
topohru0249            0.15369      10.00000      10.00000     121.00000       0.00000  
topohru0250            0.05594      30.00000      30.00000     121.00000       0.00000  
topohru0251            0.12161      10.00000      10.00000     121.00000       0.00000  
topohru0252            0.00841     121.00000     121.00000     121.00000       0.00000  
topohru0253            0.04920      60.00000      60.00000     121.00000       0.00000  
topohru0254            0.09527      10.00000      10.00000     121.00000       0.00000  
topohru0255            0.05065      30.00000      30.00000     121.00000       0.00000  
topohru0256            0.00394     121.00000     121.00000     121.00000       0.00000  
topohru0257            0.04041      60.00000      60.00000     121.00000       0.00000  
topohru0258            0.00999     121.00000     121.00000     121.00000       0.00000  
topohru0259            0.00859     121.00000     121.00000     121.00000       0.00000  
topohru0260            0.04368      60.00000      60.00000     121.00000       0.00000  
topohru0261            0.02972      90.00000      90.00000     121.00000       0.00000  
topohru0262            0.01136      90.00000      90.00000     121.00000       0.00000  
topohru0263            0.03927      60.00000      60.00000     121.00000       0.00000  
topohru0264            0.01322      90.00000      90.00000     121.00000       0.00000  
topohru0265            0.04199      60.00000      60.00000     121.00000       0.00000  
topohru0266            0.01093      90.00000      90.00000     121.00000       0.00000  
topohru0267            0.12025      10.00000      10.00000     121.00000       0.00000  
topohru0268            0.05296      30.00000      30.00000     121.00000       0.00000  
topohru0269            0.05409      30.00000      30.00000     121.00000       0.00000  
topohru0270            0.15458      10.00000      10.00000     121.00000       0.00000  
topohru0271            0.03624      60.00000      60.00000     121.00000       0.00000  
topohru0272            0.01257      90.00000      90.00000     121.00000       0.00000  
topohru0273            0.03863      60.00000      60.00000     121.00000       0.00000  
topohru0274            0.01240      90.00000      90.00000     121.00000       0.00000  
topohru0275            0.04528      60.00000      60.00000     121.00000       0.00000  
topohru0276            0.01099      90.00000      90.00000     121.00000       0.00000  
topohru0277            0.04125      60.00000      60.00000     121.00000       0.00000  
topohru0278            0.01156      90.00000      90.00000     121.00000       0.00000  
topohru0279            0.01307      90.00000      90.00000     121.00000       0.00000  
topohru0280            0.03319      60.00000      60.00000     121.00000       0.00000  
topohru0281            0.03808      60.00000      60.00000     121.00000       0.00000  
topohru0282            0.01174      90.00000      90.00000     121.00000       0.00000  
topohru0283            0.04063      60.00000      60.00000     121.00000       0.00000  
topohru0284            0.00738     121.00000     121.00000     121.00000       0.00000  
topohru0285            0.04185      60.00000      60.00000     121.00000       0.00000  
topohru0286            0.01123      90.00000      90.00000     121.00000       0.00000  
topohru0287            0.01021      90.00000      90.00000     121.00000       0.00000  
topohru0288            0.04347      60.00000      60.00000     121.00000       0.00000  
topohru0289            0.01221      90.00000      90.00000     121.00000       0.00000  
topohru0290            0.04080      60.00000      60.00000     121.00000       0.00000  
topohru0291            0.03795      60.00000      60.00000     121.00000       0.00000  
topohru0292            0.01237      90.00000      90.00000     121.00000       0.00000  
topohru0293            0.04283      60.00000      60.00000     121.00000       0.00000  
topohru0294            0.01305      90.00000      90.00000     121.00000       0.00000  
topohru0295            0.04279      60.00000      60.00000     121.00000       0.00000  
topohru0296            0.01041      90.00000      90.00000     121.00000       0.00000  
topohru0297            0.04210      60.00000      60.00000     121.00000       0.00000  
topohru0298            0.01015      90.00000      90.00000     121.00000       0.00000  
topohru0299            0.34222      10.00000      10.00000     121.00000       0.00000  
topohru0300            0.21403      10.00000      10.00000     121.00000       0.00000  
topohru0301            0.04646      60.00000      60.00000     121.00000       0.00000  
topohru0302            0.03577      60.00000      60.00000     121.00000       0.00000  
topohru0303            0.01162      90.00000      90.00000     121.00000       0.00000  
topohru0304            0.04228      60.00000      60.00000     121.00000       0.00000  
topohru0305            0.01198      90.00000      90.00000     121.00000       0.00000  
topohru0306            0.01127      90.00000      90.00000     121.00000       0.00000  
topohru0307            0.03500      60.00000      60.00000     121.00000       0.00000  
topohru0308            0.04409      60.00000      60.00000     121.00000       0.00000  
topohru0309            0.01208      90.00000      90.00000     121.00000       0.00000  
topohru0310            0.35037      10.00000      10.00000     121.00000       0.00000  
topohru0311            0.13970      10.00000      10.00000     121.00000       0.00000  
topohru0312            0.04640      60.00000      60.00000     121.00000       0.00000  
topohru0313            0.03907      60.00000      60.00000     121.00000       0.00000  
topohru0314            0.01225      90.00000      90.00000     121.00000       0.00000  
topohru0315            0.04150      60.00000      60.00000     121.00000       0.00000  
topohru0316            0.00955     121.00000     121.00000     121.00000       0.00000  
topohru0317            0.27041      10.00000      10.00000     121.00000       0.00000  
topohru0318            0.22525      10.00000      10.00000     121.00000       0.00000  
topohru0319            0.24274      10.00000      10.00000     121.00000       0.00000  
topohru0320            0.23750      10.00000      10.00000     121.00000       0.00000  
topohru0321            0.20826      10.00000      10.00000     121.00000       0.00000  
topohru0322            0.16741      10.00000      10.00000     121.00000       0.00000  
topohru0323            0.03992      60.00000      60.00000     121.00000       0.00000  
topohru0324            0.01103      90.00000      90.00000     121.00000       0.00000  
topohru0325            0.04427      60.00000      60.00000     121.00000       0.00000  
topohru0326            0.14610      10.00000      10.00000     121.00000       0.00000  
topohru0327            0.00986     121.00000     121.00000     121.00000       0.00000  
topohru0328            0.05351      30.00000      30.00000     121.00000       0.00000  
topohru0329            0.15721      10.00000      10.00000     121.00000       0.00000  
topohru0330            0.00821     121.00000     121.00000     121.00000       0.00000  
topohru0331            0.04122      60.00000      60.00000     121.00000       0.00000  
topohru0332            0.16296      10.00000      10.00000     121.00000       0.00000  
topohru0333            0.03954      60.00000      60.00000     121.00000       0.00000  
topohru0334            0.01160      90.00000      90.00000     121.00000       0.00000  
topohru0335            0.04815      60.00000      60.00000     121.00000       0.00000  