weather-sta.cli: written by SWAT+ editor v2.0.4 on 2021-11-11 16:22
name                           wgn                        pcp                        tmp                        slr                        hmd                        wnd           wnd_dir          atmo_dep  
s40557n523e                wgn8083               pAlcanar.pcp               tAlcanar.tmp               sAlcanar.slr               hAlcanar.hmd               wAlcanar.wnd              null              null  
s40627n370e                wgn8208             pUlldecona.pcp             tUlldecona.tmp             sUlldecona.slr             hUlldecona.hmd             wUlldecona.wnd              null              null  
s40627n662e                wgn8298                pCarles.pcp            tSantCarles.tmp            sSantCarles.slr            hSantCarles.hmd            wSantCarles.wnd              null              null  
s40706n629e                wgn8420               pAmposta.pcp               tAmposta.tmp               sAmposta.slr               hAmposta.hmd               wAmposta.wnd              null              null  
s40707n834e                wgn8379                pJaumeE.pcp             tSantJaume.tmp             sSantJaume.slr             hSantJaume.hmd             wSantJaume.wnd              null              null  
s40715n415e                wgn8440         pMasBarberans2.pcp         tMasBarberans2.tmp          sMasBarberans.slr         hMasBarberans2.hmd         wMasBarberans2.wnd              null              null  
s40718n399e                wgn8440          pMasBarberans.pcp          tMasBarberans.tmp          sMasBarberans.slr          hMasBarberans.hmd          wMasBarberans.wnd              null              null  
s40770n616e                wgn8536                 pAldea.pcp                 tAldea.tmp                 sAldea.slr                 hAldea.hmd                 wAldea.wnd              null              null  
s40771n297e                wgn8568              pRoquetes.pcp              tRoquetes.tmp              sRoquetes.slr              hRoquetes.hmd              wRoquetes.wnd              null              null  
s40788n742e                wgn8525               pPerello.pcp              tDeltebre.tmp               sPerello.slr              hDeltebre.hmd              wDeltebre.wnd              null              null  
s40873n716e                wgn8760               pPerello.pcp               tPerello.tmp               sPerello.slr               hPerello.hmd               wPerello.wnd              null              null  
s40905n261e                wgn8797                 pArnes.pcp                 tHorta.tmp                 sHorta.slr                 hHorta.hmd                 wHorta.wnd              null              null  
s40909n764e                wgn8870            pAmetllaMar.pcp            tAmetllaMar.tmp            sAmetllaMar.slr            hAmetllaMar.hmd            wAmetllaMar.wnd              null              null  
s40954n309e                wgn8913                 pHorta.pcp                 tHorta.tmp                 sHorta.slr                 hHorta.hmd                 wHorta.wnd              null              null  
s41011n384e                wgn9142                   pBot.pcp               tGandesa.tmp               sGandesa.slr               hGandesa.hmd               wGandesa.wnd              null              null  
s41043n740e                wgn9225              pGuiamets.pcp               tTivissa.tmp               sTivissa.slr               hTivissa.hmd               wTivissa.wnd              null              null  
s41063n635e                wgn9237            pBenissanet.pcp            tBenissanet.tmp            sBenissanet.slr            hBenissanet.hmd            wBenissanet.wnd              null              null  
s41066n430e                wgn9255                   pBot.pcp               tGandesa.tmp               sGandesa.slr               hGandesa.hmd               wGandesa.wnd              null              null  
s41081n1066e               wgn9289               pVinyols.pcp               tVinyols.tmp               sVinyols.slr               hVinyols.hmd               wVinyols.wnd              null              null  
s41087n319e                wgn9268                 pBatea.pcp                 tBatea.tmp                 sBatea.slr                 hBatea.hmd                 wBatea.wnd              null              null  
s41100n752e                wgn9345              pGuiamets.pcp               tMasroig.tmp               sTivissa.slr               hMasroig.hmd               wMasroig.wnd              null              null  
s41104n1201e               wgn9390            pTarragona3.pcp             tTarragona.tmp             sTarragona.slr             hTarragona.hmd             wTarragona.wnd              null              null  
s41110n211e                wgn9276                pBatea2.pcp                 tBatea.tmp                 sBatea.slr                 hBatea.hmd                 wBatea.wnd              null              null  
s41122n721e                wgn9352               pMasroig.pcp               tMasroig.tmp               sTivissa.slr               hMasroig.hmd               wMasroig.wnd              null              null  
s41123n969e                wgn9418           pRiudecanyes.pcp           tRiudecanyes.tmp           sRiudecanyes.slr           hRiudecanyes.hmd           wRiudecanyes.wnd              null              null  
s41135n960e                wgn9418           pRiudecanyes.pcp           tRiudecanyes.tmp           sRiudecanyes.slr           hRiudecanyes.hmd           wRiudecanyes.wnd              null              null  
s41137n1024e               wgn9408             pBotarell2.pcp             tBotarell2.tmp             sBotarell2.slr             hBotarell2.hmd             wBotarell2.wnd              null              null  
s41147n1418e               wgn9489         pTorredembarra.pcp         tTorredembarra.tmp         sTorredembarra.slr         hTorredembarra.hmd         wTorredembarra.wnd              null              null  
s41151n824e                wgn9460                pFalset.pcp               tFalset2.tmp               sFalset2.slr               hFalset2.hmd               wFalset2.wnd              null              null  
s41153n820e                wgn9460                pFalset.pcp                tFalset.tmp                sFalset.slr                hFalset.hmd                wFalset.wnd              null              null  
s41154n998e                wgn9418             pBotarell2.pcp              tBotarell.tmp              sBotarell.slr              hBotarell.hmd              wBotarell.wnd              null              null  
s41170n1170e               wgn9513             pConstanti.pcp             tConstanti.tmp             sConstanti.slr             hConstanti.hmd             wConstanti.wnd              null              null  
s41184n594e                wgn9483               pVinebre.pcp               tVinebre.tmp               sVinebre.slr               hVinebre.hmd               wVinebre.wnd              null              null  
s41188n569e                wgn9483                 pAsco2.pcp               tVinebre.tmp               sVinebre.slr               hVinebre.hmd               wVinebre.wnd              null              null  
s41196n512e                wgn9615                  pAsco.pcp                  tAsco.tmp                  sAsco.slr                  hAsco.hmd                  wAsco.wnd              null              null  
s41202n1633e               wgn9591                 pCunit.pcp                 tCunit.tmp                 sCunit.slr                 hCunit.hmd                 wCunit.wnd              null              null  
s41214n810e                wgn9588               pTorroja.pcp               tTorroja.tmp               sTorroja.slr               hTorroja.hmd               wTorroja.wnd              null              null  
s41215n1520e               wgn9597             pVendrell2.pcp              tVendrell.tmp              sVendrell.slr              hVendrell.hmd              wVendrell.wnd              null              null  
s41230n1693e               wgn9680        pVilanovaGeltru.pcp                  tFoix.tmp                 sCunit.slr                  hFoix.hmd             wCanyelles.wnd              null              null  
s41234n1337e               wgn9620             pVilabella.pcp                tNulles.tmp            sVilarodona.slr                hNulles.hmd            wVilarodona.wnd              null              null  
s41234n546e                wgn9615                  pFlix.pcp                  tAsco.tmp                  sAsco.slr                  hAsco.hmd                  wAsco.wnd              null              null  
s41236n882e                wgn9710            pCornudella.pcp               tSiurana.tmp               sTorroja.slr               hSiurana.hmd               wSiurana.wnd              null              null  
s41243n431e                wgn9624           pEmbRibaroja.pcp              tRibaRoja.tmp              sRibaRoja.slr              hRibaRoja.hmd              wRibaRoja.wnd              null              null  
s41244n433e                wgn9624              pRibaRoja.pcp              tRibaRoja.tmp              sRibaRoja.slr              hRibaRoja.hmd              wRibaRoja.wnd              null              null  
s41250n914e                wgn9679               pSiurana.pcp               tSiurana.tmp          sUlldemolins2.slr               hSiurana.hmd               wSiurana.wnd              null              null  
s41251n1298e               wgn9749                pNulles.pcp                tNulles.tmp            sVilarodona.slr                hNulles.hmd            wVilarodona.wnd              null              null  
s41256n1651e               wgn9713                  pFoix.pcp                  tFoix.tmp                 sCunit.slr                  hFoix.hmd                 wCunit.wnd              null              null  
s41273n1469e               wgn9733        pBisbalPenedes2.pcp         tBisbalPenedes.tmp              sMontmell.slr         hBisbalPenedes.hmd              wMontmell.wnd              null              null  
s41278n1805e               wgn9799         pSantPereRibes.pcp         tSantPereRibes.tmp         sSantPereRibes.slr         hSantPereRibes.hmd         wSantPereRibes.wnd              null              null  
s41285n754e                wgn9851              pMargalef.pcp              tMargalef.tmp              sMargalef.slr              hMargalef.hmd              wMargalef.wnd              null              null  
s41288n1722e               wgn9811        pVilanovaGeltru.pcp             tCanyelles.tmp            sVilafranca.slr             hCanyelles.hmd             wCanyelles.wnd              null              null  
s41289n1908e               wgn9775                pBegues.pcp                tBegues.tmp                sBegues.slr                hBegues.hmd                wBegues.wnd              null              null  
s41298n2039e               wgn9884            pViladecans.pcp            tViladecans.tmp            sViladecans.slr            hViladecans.hmd            wViladecans.wnd              null              null  
s41307n1363e               wgn9879            pVilarodona.pcp            tVilarodona.tmp            sVilarodona.slr            hVilarodona.hmd            wVilarodona.wnd              null              null  
s41309n1365e               wgn9869            pVilarodona.pcp           tVilarodona2.tmp           sVilarodona2.slr           hVilarodona2.hmd           wVilarodona2.wnd              null              null  
s41314n998e                wgn9798                pPrades.pcp                tPrades.tmp                sPrades.slr                hPrades.hmd                wPrades.wnd              null              null  
s41315n982e                wgn9798                pPrades.pcp               tPrades2.tmp                sPrades.slr               hPrades2.hmd               wPrades2.wnd              null              null  
s41317n2131e               wgn9873            pBarcelona8.pcp                  tPort.tmp                  sPort.slr                  hPort.hmd                  wPort.wnd              null              null  
s41319n879e                wgn9839          pUlldemolins2.pcp           tUlldemolins.tmp           sUlldemolins.slr           hUlldemolins.hmd           wUlldemolins.wnd              null              null  
s41320n886e                wgn9839          pUlldemolins2.pcp          tUlldemolins2.tmp          sUlldemolins2.slr          hUlldemolins2.hmd          wUlldemolins2.wnd              null              null  
s41340n2080e               wgn9884                 pDespi.pcp         tPratLlobregat.tmp         sPratLlobregat.slr         hPratLlobregat.hmd         wPratLlobregat.wnd              null              null  
s41342n1486e               wgn9990             pMontmell2.pcp              tMontmell.tmp              sMontmell.slr              hMontmell.hmd              wMontmell.wnd              null              null  
s41352n2047e              wgn10012                 pDespi.pcp         tPratLlobregat.tmp         sPratLlobregat.slr         hPratLlobregat.hmd         wPratLlobregat.wnd              null              null  
s41358n483e               wgn10008                pMaials.pcp                tMaials.tmp                sMaials.slr                hMaials.hmd                wMaials.wnd              null              null  
s41360n668e                wgn9987            pGranadella.pcp            tGranadella.tmp            sGranadella.slr            hGranadella.hmd            wGranadella.wnd              null              null  
s41365n1180e              wgn10027             pMontblanc.pcp            tBlancafort.tmp               sEspluga.slr            hBlancafort.hmd               wEspluga.wnd              null              null  
s41366n1729e               wgn9941            pVilafranca.pcp            tVilafranca.tmp            sVilafranca.slr            hVilafranca.hmd            wVilafranca.wnd              null              null  
s41375n1630e               wgn9977      pSantMartiSarroca.pcp      tSantMartiSarroca.tmp      sSantMartiSarroca.slr      hSantMartiSarroca.hmd      wSantMartiSarroca.wnd              null              null  
s41379n2105e              wgn10012            pBarcelona8.pcp            tBarcelona5.tmp            sBarcelona3.slr            hBarcelona4.hmd            wBarcelona3.wnd              null              null  
s41381n1933e              wgn10032             pVallirana.pcp             tVallirana.tmp             sVallirana.slr             hVallirana.hmd             wVallirana.wnd              null              null  
s41384n2168e              wgn10002            pBarcelona4.pcp            tBarcelona1.tmp            sBarcelona1.slr            hBarcelona1.hmd            wBarcelona1.wnd              null              null  
s41384n946e               wgn10069              pVilosell.pcp               tPrades2.tmp                sPrades.slr               hPrades2.hmd               wPrades2.wnd              null              null  
s41393n1099e              wgn10047               pEspluga.pcp               tEspluga.tmp               sEspluga.slr               hEspluga.hmd               wEspluga.wnd              null              null  
s41394n2205e              wgn10121            pBarcelona4.pcp            tBarcelona3.tmp            sBarcelona1.slr            hBarcelona2.hmd            wBarcelona1.wnd              null              null  
s41419n2124e              wgn10131            pBarcelona7.pcp            tBarcelona4.tmp            sBarcelona2.slr            hBarcelona3.hmd            wBarcelona2.wnd              null              null  
s41433n1624e              wgn10231              pFontrubi.pcp              tFontrubi.tmp              sFontrubi.slr              hFontrubi.hmd              wFontrubi.wnd              null              null  
s41434n1794e              wgn10185          pSantSadurni2.pcp           tSantSadurni.tmp           sSantSadurni.slr           hSantSadurni.hmd           wSantSadurni.wnd              null              null  
s41437n1160e              wgn10166            pBlancafort.pcp            tBlancafort.tmp               sEspluga.slr            hBlancafort.hmd               wEspluga.wnd              null              null  
s41443n1788e              wgn10185           pSantSadurni.pcp           tSantSadurni.tmp           sSantSadurni.slr           hSantSadurni.hmd           wSantSadurni.wnd              null              null  
s41449n1996e              wgn10151                pPapiol.pcp         tCastellbisbal.tmp         sCastellbisbal.slr         hCastellbisbal.hmd         wCastellbisbal.wnd              null              null  
s41451n2201e              wgn10250              pGramenet.pcp            tBarcelona2.tmp             sBadalona2.slr             hBadalona2.hmd             wBadalona2.wnd              null              null  
s41452n2184e              wgn10250            pBarcelona5.pcp            tBarcelona2.tmp             sBadalona2.slr            hBarcelona2.hmd             wBadalona2.wnd              null              null  
s41459n1664e              wgn10225            pSantQuinti.pcp               tMediona.tmp               sMediona.slr               hMediona.hmd               wMediona.wnd              null              null  
s41460n407e               wgn10276                 pSeros.pcp                 tSeros.tmp                 sSeros.slr                 hSeros.hmd                 wSeros.wnd              null              null  
s41464n428e               wgn10276                 pSeros.pcp                tSeros2.tmp                 sSeros.slr                hSeros2.hmd                wSeros2.wnd              null              null  
s41467n2245e              wgn10250             pBadalona2.pcp             tBadalona2.tmp             sBadalona2.slr             hBadalona2.hmd             wBadalona2.wnd              null              null  
s41476n2252e              wgn10240              pBadalona.pcp              tBadalona.tmp              sBadalona.slr              hBadalona.hmd              wBadalona.wnd              null              null  
s41479n1535e              wgn10239               pLlacuna.pcp               tLlacuna.tmp              sFontrubi.slr               hLlacuna.hmd              wFontrubi.wnd              null              null  
s41479n1975e              wgn10290         pCastellbisbal.pcp         tCastellbisbal.tmp         sCastellbisbal.slr         hCastellbisbal.hmd         wCastellbisbal.wnd              null              null  
s41483n2080e              wgn10270            pCerdanyola.pcp             tSantCugat.tmp             sSantCugat.slr             hSantCugat.hmd             wSantCugat.wnd              null              null  
s41484n2127e              wgn10260            pCerdanyola.pcp            tCerdanyola.tmp             sSantCugat.slr            hCerdanyola.hmd            wCerdanyola.wnd              null              null  
s41485n1692e              wgn10354               pMediona.pcp               tMediona.tmp               sMediona.slr               hMediona.hmd               wMediona.wnd              null              null  
s41487n460e               wgn10267                pAitona.pcp                tAitona.tmp                sAitona.slr                hAitona.hmd                wAitona.wnd              null              null  
s41511n1917e              wgn10431                pAbrera.pcp         tCastellbisbal.tmp         sCastellbisbal.slr         hCastellbisbal.hmd         wCastellbisbal.wnd              null              null  
s41512n2387e              wgn10361              pVilassar.pcp              tVilassar.tmp              sVilassar.slr              hVilassar.hmd              wVilassar.wnd              null              null  
s41518n2377e              wgn10361              pCabrils2.pcp               tCabrils.tmp               sCabrils.slr               hCabrils.hmd               wCabrils.wnd              null              null  
s41519n548e               wgn10389           pTorresSegre.pcp           tTorresSegre.tmp           sTorresSegre.slr           hTorresSegre.hmd           wTorresSegre.wnd              null              null  
s41523n2198e              wgn10380              pPerpetua.pcp                tParets.tmp                sParets.slr                hParets.hmd                wParets.wnd              null              null  
s41526n527e               wgn10389           pTorresSegre.pcp          tTorresSegre2.tmp          sTorresSegre2.slr          hTorresSegre2.hmd          wTorresSegre2.wnd              null              null  
s41529n753e               wgn10367           pCastelldans.pcp           tCastelldans.tmp           sCastelldans.slr           hCastelldans.hmd           wCastelldans.wnd              null              null  
s41530n1367e              wgn10395               pQueralt.pcp               tQueralt.tmp               sQueralt.slr               hQueralt.hmd               wQueralt.wnd              null              null  
s41531n1808e              wgn10444             pHostalets.pcp      tHostaletsPierola.tmp      sHostaletsPierola.slr      hHostaletsPierola.hmd      wHostaletsPierola.wnd              null              null  
s41533n2034e              wgn10409             pTerrassa2.pcp              tSabadell.tmp              sSabadell.slr              hSabadell.hmd              wSabadell.wnd              null              null  
s41542n1663e              wgn10473                 pOdena.pcp        tPoblaClaramunt.tmp                 sOdena.slr                 hOdena.hmd                 wOdena.wnd              null              null  
s41544n1299e              wgn10403               pSavalla.pcp               tQueralt.tmp               sQueralt.slr               hQueralt.hmd               wQueralt.wnd              null              null  
s41549n2245e              wgn10510                pParets.pcp              tMontmelo.tmp              sMontmelo.slr              hMontmelo.hmd              wMontmelo.wnd              null              null  
s41551n2287e              wgn10500        pVilanovaValles.pcp        tVilanovaValles.tmp        sVilanovaValles.slr        hVilanovaValles.hmd        wVilanovaValles.wnd              null              null  
s41565n550e               wgn10519              pAlcarras.pcp             tAlcarras2.tmp          sTorresSegre2.slr             hAlcarras2.hmd             wAlcarras2.wnd              null              null  
s41566n2070e              wgn10528             pSabadell2.pcp              tSabadell.tmp              sSabadell.slr              hSabadell.hmd              wSabadell.wnd              null              null  
s41567n2226e              wgn10510                pParets.pcp                tParets.tmp                sParets.slr                hParets.hmd                wParets.wnd              null              null  
s41572n1088e              wgn10563      pSantMartiRiucorb.pcp      tSantMartiRiucorb.tmp      sSantMartiRiucorb.slr      hSantMartiRiucorb.hmd      wSantMartiRiucorb.wnd              null              null  
s41572n551e               wgn10519              pAlcarras.pcp              tAlcarras.tmp          sTorresSegre2.slr              hAlcarras.hmd              wAlcarras.wnd              null              null  
s41585n1653e              wgn10622                 pOdena.pcp                 tOdena.tmp                 sOdena.slr                 hOdena.hmd                 wOdena.wnd              null              null  
s41587n1555e              wgn10631                 pJorba.pcp                 tOdena.tmp                 sOdena.slr                 hOdena.hmd                 wOdena.wnd              null              null  
s41592n1915e              wgn10561            pVacarisses.pcp            tVacarisses.tmp            sVacarisses.slr            hVacarisses.hmd            wVacarisses.wnd              null              null  
s41595n735e               wgn10629           pCastelldans.pcp                tAlamus.tmp           sCastelldans.slr                hAlamus.hmd                wAlamus.wnd              null              null  
s41596n1837e              wgn10572             pMonistrol.pcp             tMonistrol.tmp             sMonistrol.slr             hMonistrol.hmd             wMonistrol.wnd              null              null  
s41598n649e               wgn10643               pLleida3.pcp               tLleida1.tmp        sVilanovaSegria.slr               hLleida1.hmd               wLleida1.wnd              null              null  
s41600n646e               wgn10643               pLleida3.pcp               tLleida2.tmp        sVilanovaSegria.slr               hLleida2.hmd               wLleida2.wnd              null              null  
s41603n1401e              wgn10647             pMontmaneu.pcp             tMontmaneu.tmp             sMontmaneu.slr             hMontmaneu.hmd             wMontmaneu.wnd              null              null  
s41608n2081e              wgn10660       pCastellarValles.pcp              tSabadell.tmp              sSabadell.slr              hSabadell.hmd              wSabadell.wnd              null              null  
s41610n876e               wgn10605                pGolmes.pcp             tMiralcamp.tmp            sMollerussa.slr             hMiralcamp.hmd             wMiralcamp.wnd              null              null  
s41613n2168e              wgn10652                pCaldes.pcp                tCaldes.tmp                sCaldes.slr                hCaldes.hmd                wCaldes.wnd              null              null  
s41613n2169e              wgn10652                pCaldes.pcp               tCaldes2.tmp                sCaldes.slr               hCaldes2.hmd               wCaldes2.wnd              null              null  
s41618n872e               wgn10605                  pPoal.pcp            tMollerussa.tmp            sMollerussa.slr            hMollerussa.hmd            wMollerussa.wnd              null              null  
s41620n2360e              wgn10623                  pRoca.pcp               tDosrius.tmp               sDosrius.slr               hDosrius.hmd               wDosrius.wnd              null              null  
s41620n2445e              wgn10607              pDosrius2.pcp               tDosrius.tmp               sDosrius.slr               hDosrius.hmd               wDosrius.wnd              null              null  
s41633n1917e              wgn10694             pRellinars.pcp             tRellinars.tmp             sRellinars.slr             hRellinars.hmd             wRellinars.wnd              null              null  
s41636n925e               wgn10737                pGolmes.pcp                tGolmes.tmp                sGolmes.slr                hGolmes.hmd                wGolmes.wnd              null              null  
s41647n1858e              wgn10704           pCastellbell.pcp          tPontVilomara.tmp          sPontVilomara.slr          hPontVilomara.hmd          wPontVilomara.wnd              null              null  
s41647n2757e              wgn10798               pMalgrat.pcp               tMalgrat.tmp               sMalgrat.slr               hMalgrat.hmd               wMalgrat.wnd              null              null  
s41649n2752e              wgn10798               pMalgrat.pcp              tMalgrat2.tmp               sMalgrat.slr              hMalgrat2.hmd              wMalgrat2.wnd              null              null  
s41657n392e               wgn10811             pGimenells.pcp             tGimenells.tmp             sGimenells.slr             hGimenells.hmd             wGimenells.wnd              null              null  
s41657n952e               wgn10720       pCastellnouSeana.pcp       tCastellnouSeana.tmp       sCastellnouSeana.slr       hCastellnouSeana.hmd       wCastellnouSeana.wnd              null              null  
s41667n1163e              wgn10821               pTarrega.pcp               tTarrega.tmp               sTarrega.slr               hTarrega.hmd               wTarrega.wnd              null              null  
s41673n813e               wgn10755                  pPoal.pcp               tBellvis.tmp                  sPoal.slr               hBellvis.hmd               wBellvis.wnd              null              null  
s41673n877e               wgn10737                  pPoal.pcp                  tPoal.tmp                  sPoal.slr                  hPoal.hmd                  wPoal.wnd              null              null  
s41674n1767e              wgn10853         pSantSalvador2.pcp          tSantSalvador.tmp          sSantSalvador.slr          hSantSalvador.hmd          wSantSalvador.wnd              null              null  
s41675n1876e              wgn10830              pVilomara.pcp          tPontVilomara.tmp          sPontVilomara.slr          hPontVilomara.hmd          wPontVilomara.wnd              null              null  
s41676n1296e              wgn10803               pCervera.pcp               tCervera.tmp               sCervera.slr               hCervera.hmd               wCervera.wnd              null              null  
s41680n2489e              wgn10854                pCeloni.pcp               tDosrius.tmp               sDosrius.slr               hDosrius.hmd               wDosrius.wnd              null              null  
s41681n1294e              wgn10803              pCervera2.pcp               tCervera.tmp               sCervera.slr               hCervera.hmd               wCervera.wnd              null              null  