weather-wgn.cli: written by SWAT+ editor v2.0.4 on 2021-11-11 16:22
wgn10001                       41.36900       0.53400     332.00000        35  
 tmp_max_ave   tmp_min_ave    tmp_max_sd    tmp_min_sd       pcp_ave        pcp_sd      pcp_skew       wet_dry       wet_wet      pcp_days       pcp_hhr       slr_ave       dew_ave       wnd_ave  
    10.92991       0.71714       3.93860       3.53771      25.09514       2.63378       6.66452       0.37931       0.74462      18.57143       9.00359       7.47834       0.77519       3.36245  
    13.78161       1.20860       3.80068       3.44927      18.18629       2.42309       6.87054       0.30357       0.68454      13.85714       7.76032      10.68554       0.72090       3.50139  
    17.80246       4.13420       4.00057       3.24115      27.60514       3.36405       6.95227       0.26412       0.67081      13.80000      11.74535      15.45253       0.66810       3.48941  
    19.92587       6.95179       4.01463       2.61129      43.68771       4.29859       5.61968       0.33881       0.70693      16.08571      12.54387      18.71238       0.64824       3.59578  
    24.13015      11.07480       4.27267       2.85747      48.92371       4.32963       4.14276       0.37067       0.69360      16.97143       8.57148      22.11450       0.61319       3.18571  
    29.20838      15.62075       3.95580       2.73895      27.92514       3.46684       7.31389       0.30651       0.61588      13.31429      12.56661      25.41810       0.53969       3.02107  
    32.53754      18.56971       3.07209       2.51749      12.15971       1.94367      10.33781       0.28470       0.46966      10.82857       7.79570      25.91429       0.50833       3.04819  
    32.31203      18.82444       3.17613       2.50396      18.98314       2.61207       7.28153       0.29466       0.55116      12.28571       8.66497      22.04240       0.54087       2.83283  
    27.91032      14.68754       3.51820       3.10063      38.30314       4.63880       5.94244       0.31291       0.57623      12.74286      13.59003      17.14571       0.61261       2.64780  
    22.34130       9.84142       3.85107       3.41804      52.96057       5.60571       5.46945       0.32432       0.66038      15.14286      13.09222      11.61751       0.69513       2.74720  
    15.32414       4.36786       3.77104       4.03456      36.26771       4.55169       8.83212       0.36701       0.68496      16.14286      21.22400       7.98190       0.74651       3.15432  
    10.91029       1.34670       3.75794       3.76416      25.94257       2.97206       7.12973       0.40758       0.74057      18.94286      10.42374       6.60539       0.76898       3.26417  
wgn10002                       41.36900       2.13900      44.00000        35  
 tmp_max_ave   tmp_min_ave    tmp_max_sd    tmp_min_sd       pcp_ave        pcp_sd      pcp_skew       wet_dry       wet_wet      pcp_days       pcp_hhr       slr_ave       dew_ave       wnd_ave  
    12.70738       5.48649       2.93894       2.82104      43.28343       4.72408       5.15020       0.32348       0.67831      15.54286       9.52270       7.99816       0.70779       3.68663  
    13.85189       5.86411       3.19056       2.92815      36.15171       4.10710       5.23403       0.31548       0.67216      13.85714      10.26136      11.35996       0.70447       3.62247  
    16.44734       7.79966       3.04328       2.68817      39.55943       4.65915       6.29272       0.33810       0.64068      15.02857      12.80436      16.20461       0.70414       3.66271  
    18.50678       9.51793       2.90831       2.52508      41.72143       4.19520       5.18636       0.38430       0.67138      16.17143       9.51564      20.50476       0.71392       3.67721  
    22.04144      12.93817       3.23852       2.79900      48.84143       5.30421       5.99879       0.36158       0.65343      15.82857      14.69337      24.24100       0.72847       3.34203  
    26.09249      16.86173       3.41221       2.73871      28.99286       3.98356       8.03484       0.33570       0.61191      13.91429      13.05371      26.53429       0.70837       3.20560  
    29.28797      19.75983       2.77046       2.27929      21.90857       3.77770       8.84181       0.27697       0.52381      11.40000      13.82767      26.34654       0.69194       3.17665  
    29.41789      20.07212       2.77981       2.27720      44.35171       4.80426       5.73545       0.35130       0.60392      14.57143      14.77806      22.72350       0.69700       3.09281  
    26.04203      17.26636       2.70089       2.46688      71.11886       7.51931       5.54686       0.36779       0.66179      15.62857      21.09437      17.75810       0.71071       3.20550  
    21.78054      13.84781       3.14806       3.01610      88.12829       8.83624       5.48960       0.41684       0.66054      17.08571      23.27509      12.67834       0.71305       3.51634  
    16.34218       9.12349       3.12984       3.23049      58.59000       6.43087       5.45857       0.39955       0.70266      17.20000      16.53298       8.57714       0.69987       3.52666  
    13.36436       6.34034       2.84548       2.95179      36.31914       4.67354       7.88706       0.33088       0.66728      15.45714      18.66900       6.97679       0.69522       3.79603  
wgn10007                       41.37100       1.33600     476.00000        35  
 tmp_max_ave   tmp_min_ave    tmp_max_sd    tmp_min_sd       pcp_ave        pcp_sd      pcp_skew       wet_dry       wet_wet      pcp_days       pcp_hhr       slr_ave       dew_ave       wnd_ave  
    11.98879      -2.88884       3.53655       4.01122      38.82886       3.94744       4.52767       0.32252       0.72973      16.91429       7.81280       7.60645       0.77222       3.20107  
    11.65408      -2.41068       3.53491       3.69794      29.25771       3.45995       5.80242       0.32688       0.70992      14.97143       9.71373      10.74520       0.73515       3.12331  
    13.40665      -0.14169       3.52912       3.11683      37.71200       4.60076       6.93299       0.31228       0.65437      14.71429      13.80072      15.33825       0.70090       3.08069  
    15.12063       1.73869       3.23532       2.53284      49.99971       4.45201       4.62538       0.33966       0.72049      16.45714      10.71884      18.84190       0.69052       3.17503  
    18.51080       5.49157       3.47290       2.74481      58.62714       5.54709       5.69530       0.35684       0.72934      17.62857      17.19862      22.52447       0.68685       2.76668  
    22.88084       9.58643       3.57175       2.70200      36.43229       4.86274       8.70904       0.33214       0.62475      14.08571      16.10322      25.59714       0.63405       2.61644  
    26.59274      13.22268       2.78991       2.97591      14.96914       1.98893       7.24048       0.28507       0.53976      11.85714       6.14474      25.75207       0.61537       2.57007  
    26.31251      13.46382       3.14679       2.43231      37.65657       4.13944       5.66795       0.33498       0.57143      13.60000       9.96323      21.89493       0.64005       2.39494  
    22.64457      10.34330       3.35498       3.14834      62.09286       6.49787       5.05685       0.35327       0.63301      14.71429      15.34997      16.93429       0.69257       2.35737  
    19.19272       6.36154       3.90104       3.25320      77.79629       7.27466       5.14171       0.36310       0.68503      16.60000      23.00358      11.72535       0.73228       2.57004  
    15.17206       0.92589       3.41950       4.32404      60.45800       6.41496       4.83827       0.33403       0.71979      16.31429      15.82521       8.00190       0.75814       2.94836  
    13.05867      -1.99458       3.25511       4.07742      37.21600       4.47552       6.79240       0.35167       0.68924      16.45714      15.25730       6.70288       0.76950       3.17272  
wgn10008                       41.37200       0.46800     295.00000        35  
 tmp_max_ave   tmp_min_ave    tmp_max_sd    tmp_min_sd       pcp_ave        pcp_sd      pcp_skew       wet_dry       wet_wet      pcp_days       pcp_hhr       slr_ave       dew_ave       wnd_ave  
    10.92991       0.71714       3.93860       3.53771      24.08457       2.57092       7.02825       0.37528       0.72943      18.05714       9.52414       7.62212       0.74937       3.58556  
    13.78161       1.20860       3.80068       3.44927      17.53771       2.33209       6.78336       0.29862       0.68333      13.71429       7.22966      10.92821       0.69334       3.77900  
    17.80246       4.13420       4.00057       3.24115      26.32114       3.15356       6.76600       0.26806       0.63853      13.20000      10.45154      15.78525       0.63753       3.73454  
    19.92587       6.95179       4.01463       2.61129      42.36686       4.13423       5.56766       0.31992       0.68371      15.08571      11.55835      19.23619       0.61609       3.80825  
    24.13015      11.07480       4.27267       2.85747      48.16286       4.24045       4.15757       0.37450       0.67753      16.65714       9.06676      22.54940       0.57175       3.36646  
    29.20838      15.62075       3.95580       2.73895      27.78229       3.33359       6.94595       0.30221       0.61388      13.17143      11.50528      25.75333       0.49464       3.17121  
    32.53754      18.56971       3.07209       2.51749      12.28714       1.89470      10.22460       0.28736       0.48586      11.11429       7.78306      26.26912       0.45691       3.22143  
    32.31203      18.82444       3.17613       2.50396      18.93800       2.48228       6.84525       0.29493       0.55760      12.40000       7.70725      22.45991       0.48824       3.01811  
    27.91032      14.68754       3.51820       3.10063      37.18486       4.37599       5.82485       0.29752       0.59551      12.71429      11.64174      17.54000       0.56277       2.78139  
    22.34130       9.84142       3.85107       3.41804      51.33714       5.38567       5.53332       0.32849       0.66105      15.25714      13.91854      11.91982       0.65765       2.89838  
    15.32414       4.36786       3.77104       4.03456      34.85429       4.39450       8.77006       0.36581       0.66362      15.62857      19.92262       8.17810       0.71642       3.36102  
    10.91029       1.34670       3.75794       3.76416      24.73086       2.79515       6.97435       0.40181       0.72274      18.34286       9.82485       6.71123       0.74057       3.47772  
wgn10012                       41.37300       2.07200      75.00000        35  
 tmp_max_ave   tmp_min_ave    tmp_max_sd    tmp_min_sd       pcp_ave        pcp_sd      pcp_skew       wet_dry       wet_wet      pcp_days       pcp_hhr       slr_ave       dew_ave       wnd_ave  
    12.70738       5.48649       2.93894       2.82104      43.87686       4.74590       5.04009       0.29877       0.67054      14.74286       9.93437       7.99816       0.70779       3.68663  
    13.85189       5.86411       3.19056       2.92815      36.12829       4.16281       5.38120       0.30116       0.66879      13.45714      11.17882      11.35996       0.70447       3.62247  
    16.44734       7.79966       3.04328       2.68817      40.65771       4.79409       6.44212       0.30648       0.65953      14.68571      13.41129      16.20461       0.70414       3.66271  
    18.50678       9.51793       2.90831       2.52508      44.55514       4.42519       5.24618       0.33468       0.70036      15.82857      10.13668      20.50476       0.71392       3.67721  
    22.04144      12.93817       3.23852       2.79900      51.22857       5.46573       5.99260       0.36571       0.65714      16.00000      15.49555      24.24100       0.72847       3.34203  
    26.09249      16.86173       3.41221       2.73871      29.44000       3.87428       7.74691       0.30877       0.63333      13.71429      12.10803      26.53429       0.70837       3.20560  
    29.28797      19.75983       2.77046       2.27929      21.80457       3.65000       8.02775       0.27561       0.51276      11.20000      11.14588      26.34654       0.69194       3.17665  
    29.41789      20.07212       2.77981       2.27720      45.42686       4.73207       5.26415       0.32874       0.62103      14.40000      12.68438      22.72350       0.69700       3.09281  
    26.04203      17.26636       2.70089       2.46688      72.08971       7.74504       5.89964       0.35742       0.65985      15.37143      22.91281      17.75810       0.71071       3.20550  
    21.78054      13.84781       3.14806       3.01610      88.41686       8.69757       5.30749       0.37678       0.68855      16.97143      22.86341      12.67834       0.71305       3.51634  
    16.34218       9.12349       3.12984       3.23049      60.36600       6.73249       5.57081       0.36214       0.68794      16.11429      18.08559       8.57714       0.69987       3.52666  
    13.36436       6.34034       2.84548       2.95179      37.78314       4.76097       7.41270       0.28930       0.64476      13.91429      18.20322       6.97679       0.69522       3.79603  
wgn10017                       41.37600       0.40100     251.00000        35  
 tmp_max_ave   tmp_min_ave    tmp_max_sd    tmp_min_sd       pcp_ave        pcp_sd      pcp_skew       wet_dry       wet_wet      pcp_days       pcp_hhr       slr_ave       dew_ave       wnd_ave  
    11.18415       1.05296       3.95033       3.53083      23.13571       2.51317       7.39848       0.32087       0.71750      16.48571       9.94615       7.62212       0.74937       3.58556  
    14.10431       1.51273       3.80310       3.41197      16.93143       2.24410       6.65257       0.27440       0.66592      12.74286       6.55748      10.92821       0.69334       3.77900  
    18.21515       4.44200       4.03071       3.22856      25.03286       2.95013       6.56010       0.25502       0.62329      12.51429       9.20069      15.78525       0.63753       3.73454  
    20.38646       7.30534       4.07982       2.61016      41.11686       3.96813       5.52256       0.30970       0.67704      14.68571      10.46923      19.23619       0.61609       3.80825  
    24.61438      11.39714       4.32610       2.85624      47.52686       4.17103       4.22000       0.38878       0.66894      16.74286       9.87034      22.54940       0.57175       3.36646  
    29.75519      15.94438       4.04402       2.74264      27.84857       3.26990       7.12744       0.30964       0.60131      13.11429      12.73592      25.75333       0.49464       3.17121  
    33.06619      18.84075       3.12718       2.49482      12.46000       1.80408       9.71570       0.25243       0.50000      10.40000       7.43939      26.26912       0.45691       3.22143  
    32.83551      19.06413       3.20049       2.49486      19.17657       2.41045       6.44320       0.29147       0.57273      12.57143       6.47156      22.45991       0.48824       3.01811  
    28.43356      14.95615       3.60903       3.06697      36.11686       4.10517       5.67333       0.31153       0.61407      13.40000      10.22917      17.54000       0.56277       2.78139  
    22.71128      10.10204       3.86818       3.38829      49.72200       5.17771       5.67296       0.34353       0.63894      15.11429      14.46689      11.91982       0.65765       2.89838  
    15.59037       4.68571       3.77763       4.00242      33.74514       4.25923       8.65574       0.32203       0.67052      14.82857      18.53531       8.17810       0.71642       3.36102  
    11.12295       1.64473       3.77782       3.77232      23.55486       2.62917       6.79283       0.36853       0.70432      17.20000       9.22596       6.71123       0.74057       3.47772  
wgn10018                       41.37600       1.27000     432.00000        35  
 tmp_max_ave   tmp_min_ave    tmp_max_sd    tmp_min_sd       pcp_ave        pcp_sd      pcp_skew       wet_dry       wet_wet      pcp_days       pcp_hhr       slr_ave       dew_ave       wnd_ave  
    11.98879      -2.88884       3.53655       4.01122      36.46171       3.70720       4.50554       0.33471       0.72879      17.17143       6.90986       7.60645       0.77222       3.20107  
    11.65408      -2.41068       3.53491       3.69794      27.25514       3.25866       5.76469       0.30408       0.70140      14.25714       8.90584      10.74520       0.73515       3.12331  
    13.40665      -0.14169       3.52912       3.11683      35.73771       4.39546       6.81276       0.31757       0.61866      14.08571      12.55799      15.33825       0.70090       3.08069  
    15.12063       1.73869       3.23532       2.53284      48.47086       4.38210       4.74109       0.31633       0.72321      16.00000      10.75449      18.84190       0.69052       3.17503  
    18.51080       5.49157       3.47290       2.74481      57.37629       5.38023       5.51510       0.35684       0.72934      17.62857      16.16024      22.52447       0.68685       2.76668  
    22.88084       9.58643       3.57175       2.70200      35.86914       4.87139       8.67345       0.32451       0.61905      13.80000      16.22915      25.59714       0.63405       2.61644  
    26.59274      13.22268       2.78991       2.97591      13.88057       1.84333       7.24662       0.25322       0.54145      11.02857       5.56496      25.75207       0.61537       2.57007  
    26.31251      13.46382       3.14679       2.43231      34.42343       3.90859       5.99195       0.31388       0.55876      12.88571       9.60205      21.89493       0.64005       2.39494  
    22.64457      10.34330       3.35498       3.14834      59.68514       6.26683       5.03842       0.31522       0.65060      14.22857      15.20741      16.93429       0.69257       2.35737  
    19.19272       6.36154       3.90104       3.25320      74.68571       7.13966       5.62820       0.34026       0.67626      15.88571      24.23205      11.72535       0.73228       2.57004  
    15.17206       0.92589       3.41950       4.32404      58.49771       6.20589       4.86735       0.32347       0.69797      15.51429      15.82283       8.00190       0.75814       2.94836  
    13.05867      -1.99458       3.25511       4.07742      35.19600       4.27623       6.86148       0.32957       0.68412      15.82857      14.58960       6.70288       0.76950       3.17272  
wgn10022                       41.37800       2.00600     155.00000        35  
 tmp_max_ave   tmp_min_ave    tmp_max_sd    tmp_min_sd       pcp_ave        pcp_sd      pcp_skew       wet_dry       wet_wet      pcp_days       pcp_hhr       slr_ave       dew_ave       wnd_ave  
    13.09898       4.11242       2.88996       2.90185      45.95886       4.92575       5.00112       0.36821       0.68707      16.80000      10.74126       7.92535       0.72712       3.04728  
    13.99641       4.55694       3.04721       2.85102      37.36686       4.34535       5.59463       0.37284       0.67048      15.00000      12.53853      11.24267       0.71007       2.97620  
    16.38190       6.52773       2.87223       2.60275      43.13371       5.07899       6.58272       0.34791       0.67263      15.97143      14.47694      15.92811       0.68932       2.99614  
    18.39757       8.36521       2.69877       2.43578      48.92800       4.76600       5.21897       0.36325       0.70790      16.62857      11.65636      20.07238       0.68892       3.05747  
    21.77378      11.85931       3.00077       2.69460      54.72457       5.69310       5.95687       0.36105       0.69932      16.91429      16.43888      23.82364       0.69436       2.76977  
    25.85972      15.85932       3.10950       2.54946      30.59143       3.79949       7.24110       0.37970       0.61004      14.80000      11.25645      26.27810       0.66233       2.64782  
    29.03116      18.85497       2.54548       2.21981      21.91229       3.55025       7.64934       0.28167       0.54348      11.82857       9.59327      26.12811       0.65196       2.57393  
    29.22639      19.31397       2.52747       2.09338      46.70543       4.68784       4.82331       0.35284       0.59325      14.40000      11.68224      22.48018       0.67369       2.43124  
    26.06330      16.49451       2.55167       2.46526      73.67829       7.98876       6.13280       0.40202       0.64144      15.85714      23.93142      17.45143       0.70744       2.44457  
    21.93457      12.85279       3.05141       3.01462      90.10229       8.69497       5.10168       0.43197       0.67846      17.77143      22.31999      12.45806       0.71669       2.68908  
    16.73074       7.96447       3.08175       3.31314      63.60543       7.13639       5.57011       0.44266       0.68567      17.54286      19.52764       8.42857       0.71890       2.82367  
    13.79322       4.96726       2.79610       3.03464      40.54114       4.97102       6.89092       0.37182       0.66899      16.40000      17.87387       6.93872       0.71830       3.10183  
wgn10026                       41.38000       0.33500     234.00000        35  
 tmp_max_ave   tmp_min_ave    tmp_max_sd    tmp_min_sd       pcp_ave        pcp_sd      pcp_skew       wet_dry       wet_wet      pcp_days       pcp_hhr       slr_ave       dew_ave       wnd_ave  
    11.11656       1.28449       3.91969       3.49095      22.67857       2.47311       7.64740       0.31073       0.70217      15.82857      10.22411       7.62212       0.74937       3.58556  
    14.03231       1.72917       3.79617       3.34961      16.72400       2.18611       6.46516       0.27768       0.65068      12.51429       5.92574      10.92821       0.69334       3.77900  
    18.19593       4.62218       4.03636       3.17357      24.22343       2.80764       6.38614       0.24511       0.61190      12.00000       8.35416      15.78525       0.63753       3.73454  
    20.41959       7.44907       4.10765       2.58045      40.51114       3.85807       5.46810       0.30697       0.68593      14.82857      10.18873      19.23619       0.61609       3.80825  
    24.67512      11.47946       4.36435       2.84356      47.49486       4.17207       4.33037       0.37910       0.69012      17.05714      10.61327      22.54940       0.57175       3.36646  
    29.88378      15.98560       4.10347       2.73418      28.30086       3.29786       7.66001       0.31472       0.59477      13.11429      13.97666      25.75333       0.49464       3.17121  
    33.20615      18.82816       3.18111       2.44382      12.83714       1.71709       8.81480       0.27746       0.51145      11.22857       6.95422      26.26912       0.45691       3.22143  
    32.94606      19.02503       3.20951       2.45667      19.70171       2.42723       6.38050       0.30401       0.54920      12.48571       7.23471      22.45991       0.48824       3.01811  
    28.51258      14.99377       3.67028       2.99209      35.25514       3.89947       5.59445       0.29846       0.62741      13.34286      10.09271      17.54000       0.56277       2.78139  
    22.66929      10.22504       3.87130       3.32337      48.42971       5.01775       5.77072       0.32143       0.65714      15.00000      14.29000      11.91982       0.65765       2.89838  
    15.50954       4.90200       3.76685       3.92228      33.19457       4.16825       8.54391       0.32784       0.64484      14.40000      17.44871       8.17810       0.71642       3.36102  
    11.05044       1.85300       3.75803       3.74273      22.88257       2.51445       6.62577       0.34893       0.68706      16.34286       8.74836       6.71123       0.74057       3.47772  
wgn10027                       41.38000       1.20400     445.00000        35  
 tmp_max_ave   tmp_min_ave    tmp_max_sd    tmp_min_sd       pcp_ave        pcp_sd      pcp_skew       wet_dry       wet_wet      pcp_days       pcp_hhr       slr_ave       dew_ave       wnd_ave  
    12.48083      -2.13863       3.46134       3.95930      35.17029       3.55321       4.51847       0.32712       0.73588      17.20000       6.95264       7.60645       0.77222       3.20107  
    12.54071      -1.60468       3.51444       3.65164      26.03829       3.13952       5.80768       0.29307       0.69421      13.82857       8.44011      10.74520       0.73515       3.12331  
    14.58727       0.77073       3.49074       3.07194      35.12800       4.34445       6.71856       0.31553       0.61111      13.88571      11.64792      15.33825       0.70090       3.08069  
    16.35730       2.75257       3.24081       2.47235      48.74029       4.45819       4.84743       0.29259       0.73503      15.74286      10.78775      18.84190       0.69052       3.17503  
    19.82888       6.56710       3.46177       2.68874      57.18371       5.29189       5.36683       0.37473       0.71683      17.65714      15.64462      22.52447       0.68685       2.76668  
    24.25640      10.69099       3.47975       2.65163      35.94657       4.87891       8.55850       0.31874       0.62004      13.68571      15.90837      25.59714       0.63405       2.61644  
    27.94016      14.28390       2.70405       2.84853      12.99200       1.72441       7.11772       0.24290       0.55118      10.88571       4.96142      25.75207       0.61537       2.57007  
    27.60957      14.47355       3.03982       2.39520      31.62743       3.71764       6.67733       0.30503       0.56793      12.82857      11.05626      21.89493       0.64005       2.39494  
    23.82799      11.24088       3.26737       3.10618      57.25971       6.03909       5.03569       0.29217       0.64632      13.57143      14.45892      16.93429       0.69257       2.35737  
    20.21290       7.20074       3.79780       3.24190      72.73314       7.09565       6.05912       0.34211       0.67089      15.80000      24.98054      11.72535       0.73228       2.57004  
    15.83727       1.71444       3.40535       4.27802      57.50829       6.10095       4.98044       0.32308       0.68302      15.14286      16.53568       8.00190       0.75814       2.94836  
    13.44526      -1.26937       3.17153       4.06154      34.36714       4.18055       6.86544       0.33459       0.68165      15.88571      13.91953       6.70288       0.76950       3.17272  
wgn10032                       41.38200       1.94000     295.00000        35  
 tmp_max_ave   tmp_min_ave    tmp_max_sd    tmp_min_sd       pcp_ave        pcp_sd      pcp_skew       wet_dry       wet_wet      pcp_days       pcp_hhr       slr_ave       dew_ave       wnd_ave  
    11.87412       2.09660       2.95495       3.03903      49.23457       5.24757       5.03245       0.37295       0.69347      17.05714      12.01158       7.92535       0.72712       3.04728  
    12.43376       2.54711       3.06268       2.93974      39.58429       4.63675       5.83784       0.40455       0.67577      15.68571      14.13584      11.24267       0.71007       2.97620  
    14.57173       4.49630       2.92032       2.65622      46.82343       5.50035       6.65697       0.38650       0.68289      17.02857      15.71433      15.92811       0.68932       2.99614  
    16.50517       6.30142       2.68894       2.45418      54.57000       5.18903       5.12028       0.39529       0.73120      17.85714      13.36188      20.07238       0.68892       3.05747  
    19.80423       9.80274       2.99595       2.71392      59.20286       5.98111       5.89963       0.38877       0.69040      17.25714      17.50454      23.82364       0.69436       2.76977  
    23.94794      13.84350       3.02564       2.53685      32.68114       3.82152       6.72987       0.40755       0.62523      15.62857      10.60952      26.27810       0.66233       2.64782  
    27.18084      16.94398       2.51064       2.29118      22.17914       3.48889       7.69773       0.34537       0.50893      12.80000      10.67539      26.12811       0.65196       2.57393  
    27.40864      17.51665       2.51207       2.03687      47.91743       4.73152       4.57460       0.36888       0.58869      14.65714      10.59776      22.48018       0.67369       2.43124  
    24.28538      14.68007       2.54566       2.53748      75.35886       8.20260       6.10838       0.43776       0.62852      16.22857      23.65853      17.45143       0.70744       2.44457  
    20.24576      10.91362       3.10898       3.04266      92.98229       8.83815       4.88671       0.41667       0.68395      17.62857      21.33667      12.45806       0.71669       2.68908  
    15.36853       5.97159       3.08038       3.42934      67.93714       7.62818       5.49821       0.46731       0.69702      18.20000      20.90147       8.42857       0.71890       2.82367  
    12.62714       2.97263       2.81180       3.12422      44.30714       5.30258       6.46829       0.40619       0.67167      17.14286      17.73508       6.93872       0.71830       3.10183  
wgn10034                       41.38300       0.26900     243.00000        35  
 tmp_max_ave   tmp_min_ave    tmp_max_sd    tmp_min_sd       pcp_ave        pcp_sd      pcp_skew       wet_dry       wet_wet      pcp_days       pcp_hhr       slr_ave       dew_ave       wnd_ave  
    11.11656       1.28449       3.91969       3.49095      22.55200       2.44147       7.75744       0.32762       0.69286      16.00000      10.34793       7.62212       0.74937       3.58556  
    14.03231       1.72917       3.79617       3.34961      16.82714       2.15336       6.23888       0.26667       0.63723      11.97143       5.96364      10.92821       0.69334       3.77900  
    18.19593       4.62218       4.03636       3.17357      23.76600       2.71283       6.25705       0.25719       0.59906      12.11429       7.90436      15.78525       0.63753       3.73454  